version 2
run Default-0-20250514-20:42:12-12941
attr configname Default
attr datetime 20250514-20:42:12
attr experiment Default
attr inifile omnetpp.ini
attr iterationvars ""
attr iterationvarsf ""
attr measurement ""
attr network RSUExampleScenario
attr processid 12941
attr repetition 0
attr replication #0
attr resultdir results
attr runnumber 0
attr seedset 0
param *.playgroundSizeX 2500m
param *.playgroundSizeY 2500m
param *.playgroundSizeZ 50m
param *.annotations.draw true
param *.obstacles.obstacles "xmldoc(\"config.xml\", \"//AnalogueModel[@type='SimpleObstacleShadowing']/obstacles\")"
param *.manager.updateInterval 1s
param *.manager.host "\"localhost\""
param *.manager.port 9999
param *.manager.autoShutdown true
param *.manager.launchConfig "xmldoc(\"erlangen.launchd.xml\")"
param *.rsu[0].mobility.x 2000
param *.rsu[0].mobility.y 2000
param *.rsu[0].mobility.z 3
param *.rsu[*].applType "\"TraCIDemoRSU11p\""
param *.rsu[*].appl.headerLength "80 bit"
param *.rsu[*].appl.sendBeacons false
param *.rsu[*].appl.dataOnSch false
param *.rsu[*].appl.beaconInterval 1s
param *.rsu[*].appl.beaconUserPriority 7
param *.rsu[*].appl.dataUserPriority 5
param *.rsu[*].nic.phy80211p.antennaOffsetZ "0 m"
param *.connectionManager.sendDirect true
param *.connectionManager.maxInterfDist 2600m
param *.connectionManager.drawMaxIntfDist false
param *.**.nic.mac1609_4.useServiceChannel false
param *.**.nic.mac1609_4.txPower 20mW
param *.**.nic.mac1609_4.bitrate 6Mbps
param *.**.nic.phy80211p.minPowerLevel -110dBm
param *.**.nic.phy80211p.useNoiseFloor true
param *.**.nic.phy80211p.noiseFloor -98dBm
param *.**.nic.phy80211p.decider "xmldoc(\"config.xml\")"
param *.**.nic.phy80211p.analogueModels "xmldoc(\"config.xml\")"
param *.**.nic.phy80211p.usePropagationDelay true
param *.**.nic.phy80211p.antenna "xmldoc(\"antenna.xml\", \"/root/Antenna[@id='monopole']\")"
param *.node[*].nic.phy80211p.antennaOffsetY "0 m"
param *.node[*].nic.phy80211p.antennaOffsetZ "1.895 m"
param *.node[*].applType "\"TraCIDemo11p\""
param *.node[*].appl.headerLength "80 bit"
param *.node[*].appl.sendBeacons false
param *.node[*].appl.dataOnSch false
param *.node[*].appl.beaconInterval 1s
param *.node[*].veinsmobility.x 0
param *.node[*].veinsmobility.y 0
param *.node[*].veinsmobility.z 0
param *.node[*].veinsmobility.setHostSpeed false
param *.node[*0].veinsmobility.accidentCount 1
param *.node[*0].veinsmobility.accidentStart 73s
param *.node[*0].veinsmobility.accidentDuration 50s

vector 0 RSUExampleScenario.node[0].veinsmobility posx ETV
vector 1 RSUExampleScenario.node[0].veinsmobility posy ETV
vector 2 RSUExampleScenario.node[0].veinsmobility speed ETV
vector 3 RSUExampleScenario.node[0].veinsmobility acceleration ETV
vector 4 RSUExampleScenario.node[0].veinsmobility co2emission ETV
vector 5 RSUExampleScenario.node[1].veinsmobility posx ETV
vector 6 RSUExampleScenario.node[1].veinsmobility posy ETV
vector 7 RSUExampleScenario.node[1].veinsmobility speed ETV
vector 8 RSUExampleScenario.node[1].veinsmobility acceleration ETV
vector 9 RSUExampleScenario.node[1].veinsmobility co2emission ETV
vector 10 RSUExampleScenario.node[2].veinsmobility posx ETV
vector 11 RSUExampleScenario.node[2].veinsmobility posy ETV
vector 12 RSUExampleScenario.node[2].veinsmobility speed ETV
vector 13 RSUExampleScenario.node[2].veinsmobility acceleration ETV
vector 14 RSUExampleScenario.node[2].veinsmobility co2emission ETV
vector 15 RSUExampleScenario.node[3].veinsmobility posx ETV
vector 16 RSUExampleScenario.node[3].veinsmobility posy ETV
vector 17 RSUExampleScenario.node[3].veinsmobility speed ETV
vector 18 RSUExampleScenario.node[3].veinsmobility acceleration ETV
vector 19 RSUExampleScenario.node[3].veinsmobility co2emission ETV
vector 20 RSUExampleScenario.node[4].veinsmobility posx ETV
vector 21 RSUExampleScenario.node[4].veinsmobility posy ETV
vector 22 RSUExampleScenario.node[4].veinsmobility speed ETV
vector 23 RSUExampleScenario.node[4].veinsmobility acceleration ETV
vector 24 RSUExampleScenario.node[4].veinsmobility co2emission ETV
vector 25 RSUExampleScenario.node[5].veinsmobility posx ETV
vector 26 RSUExampleScenario.node[5].veinsmobility posy ETV
vector 27 RSUExampleScenario.node[5].veinsmobility speed ETV
vector 28 RSUExampleScenario.node[5].veinsmobility acceleration ETV
vector 29 RSUExampleScenario.node[5].veinsmobility co2emission ETV
vector 30 RSUExampleScenario.node[6].veinsmobility posx ETV
vector 31 RSUExampleScenario.node[6].veinsmobility posy ETV
vector 32 RSUExampleScenario.node[6].veinsmobility speed ETV
vector 33 RSUExampleScenario.node[6].veinsmobility acceleration ETV
vector 34 RSUExampleScenario.node[6].veinsmobility co2emission ETV
vector 35 RSUExampleScenario.node[7].veinsmobility posx ETV
vector 36 RSUExampleScenario.node[7].veinsmobility posy ETV
vector 37 RSUExampleScenario.node[7].veinsmobility speed ETV
vector 38 RSUExampleScenario.node[7].veinsmobility acceleration ETV
vector 39 RSUExampleScenario.node[7].veinsmobility co2emission ETV
vector 40 RSUExampleScenario.node[8].veinsmobility posx ETV
vector 41 RSUExampleScenario.node[8].veinsmobility posy ETV
vector 42 RSUExampleScenario.node[8].veinsmobility speed ETV
vector 43 RSUExampleScenario.node[8].veinsmobility acceleration ETV
vector 44 RSUExampleScenario.node[8].veinsmobility co2emission ETV
vector 45 RSUExampleScenario.node[9].veinsmobility posx ETV
vector 46 RSUExampleScenario.node[9].veinsmobility posy ETV
vector 47 RSUExampleScenario.node[9].veinsmobility speed ETV
vector 48 RSUExampleScenario.node[9].veinsmobility acceleration ETV
vector 49 RSUExampleScenario.node[9].veinsmobility co2emission ETV
vector 50 RSUExampleScenario.node[10].veinsmobility posx ETV
vector 51 RSUExampleScenario.node[10].veinsmobility posy ETV
vector 52 RSUExampleScenario.node[10].veinsmobility speed ETV
vector 53 RSUExampleScenario.node[10].veinsmobility acceleration ETV
vector 54 RSUExampleScenario.node[10].veinsmobility co2emission ETV
vector 55 RSUExampleScenario.node[11].veinsmobility posx ETV
vector 56 RSUExampleScenario.node[11].veinsmobility posy ETV
vector 57 RSUExampleScenario.node[11].veinsmobility speed ETV
vector 58 RSUExampleScenario.node[11].veinsmobility acceleration ETV
vector 59 RSUExampleScenario.node[11].veinsmobility co2emission ETV
vector 60 RSUExampleScenario.node[12].veinsmobility posx ETV
vector 61 RSUExampleScenario.node[12].veinsmobility posy ETV
vector 62 RSUExampleScenario.node[12].veinsmobility speed ETV
vector 63 RSUExampleScenario.node[12].veinsmobility acceleration ETV
vector 64 RSUExampleScenario.node[12].veinsmobility co2emission ETV
vector 65 RSUExampleScenario.node[13].veinsmobility posx ETV
vector 66 RSUExampleScenario.node[13].veinsmobility posy ETV
vector 67 RSUExampleScenario.node[13].veinsmobility speed ETV
vector 68 RSUExampleScenario.node[13].veinsmobility acceleration ETV
vector 69 RSUExampleScenario.node[13].veinsmobility co2emission ETV
vector 70 RSUExampleScenario.node[14].veinsmobility posx ETV
vector 71 RSUExampleScenario.node[14].veinsmobility posy ETV
vector 72 RSUExampleScenario.node[14].veinsmobility speed ETV
vector 73 RSUExampleScenario.node[14].veinsmobility acceleration ETV
vector 74 RSUExampleScenario.node[14].veinsmobility co2emission ETV
vector 75 RSUExampleScenario.node[15].veinsmobility posx ETV
vector 76 RSUExampleScenario.node[15].veinsmobility posy ETV
vector 77 RSUExampleScenario.node[15].veinsmobility speed ETV
vector 78 RSUExampleScenario.node[15].veinsmobility acceleration ETV
vector 79 RSUExampleScenario.node[15].veinsmobility co2emission ETV
vector 80 RSUExampleScenario.node[16].veinsmobility posx ETV
vector 81 RSUExampleScenario.node[16].veinsmobility posy ETV
vector 82 RSUExampleScenario.node[16].veinsmobility speed ETV
vector 83 RSUExampleScenario.node[16].veinsmobility acceleration ETV
vector 84 RSUExampleScenario.node[16].veinsmobility co2emission ETV
vector 85 RSUExampleScenario.node[17].veinsmobility posx ETV
vector 86 RSUExampleScenario.node[17].veinsmobility posy ETV
vector 87 RSUExampleScenario.node[17].veinsmobility speed ETV
vector 88 RSUExampleScenario.node[17].veinsmobility acceleration ETV
vector 89 RSUExampleScenario.node[17].veinsmobility co2emission ETV
vector 90 RSUExampleScenario.node[18].veinsmobility posx ETV
vector 91 RSUExampleScenario.node[18].veinsmobility posy ETV
vector 92 RSUExampleScenario.node[18].veinsmobility speed ETV
vector 93 RSUExampleScenario.node[18].veinsmobility acceleration ETV
vector 94 RSUExampleScenario.node[18].veinsmobility co2emission ETV
vector 95 RSUExampleScenario.node[19].veinsmobility posx ETV
vector 96 RSUExampleScenario.node[19].veinsmobility posy ETV
vector 97 RSUExampleScenario.node[19].veinsmobility speed ETV
vector 98 RSUExampleScenario.node[19].veinsmobility acceleration ETV
vector 99 RSUExampleScenario.node[19].veinsmobility co2emission ETV
vector 100 RSUExampleScenario.node[20].veinsmobility posx ETV
vector 101 RSUExampleScenario.node[20].veinsmobility posy ETV
vector 102 RSUExampleScenario.node[20].veinsmobility speed ETV
vector 103 RSUExampleScenario.node[20].veinsmobility acceleration ETV
vector 104 RSUExampleScenario.node[20].veinsmobility co2emission ETV
vector 105 RSUExampleScenario.node[21].veinsmobility posx ETV
vector 106 RSUExampleScenario.node[21].veinsmobility posy ETV
vector 107 RSUExampleScenario.node[21].veinsmobility speed ETV
vector 108 RSUExampleScenario.node[21].veinsmobility acceleration ETV
vector 109 RSUExampleScenario.node[21].veinsmobility co2emission ETV
vector 110 RSUExampleScenario.node[22].veinsmobility posx ETV
vector 111 RSUExampleScenario.node[22].veinsmobility posy ETV
vector 112 RSUExampleScenario.node[22].veinsmobility speed ETV
vector 113 RSUExampleScenario.node[22].veinsmobility acceleration ETV
vector 114 RSUExampleScenario.node[22].veinsmobility co2emission ETV
vector 115 RSUExampleScenario.node[23].veinsmobility posx ETV
vector 116 RSUExampleScenario.node[23].veinsmobility posy ETV
vector 117 RSUExampleScenario.node[23].veinsmobility speed ETV
vector 118 RSUExampleScenario.node[23].veinsmobility acceleration ETV
vector 119 RSUExampleScenario.node[23].veinsmobility co2emission ETV
vector 120 RSUExampleScenario.node[24].veinsmobility posx ETV
vector 121 RSUExampleScenario.node[24].veinsmobility posy ETV
vector 122 RSUExampleScenario.node[24].veinsmobility speed ETV
vector 123 RSUExampleScenario.node[24].veinsmobility acceleration ETV
vector 124 RSUExampleScenario.node[24].veinsmobility co2emission ETV
vector 125 RSUExampleScenario.node[25].veinsmobility posx ETV
vector 126 RSUExampleScenario.node[25].veinsmobility posy ETV
vector 127 RSUExampleScenario.node[25].veinsmobility speed ETV
vector 128 RSUExampleScenario.node[25].veinsmobility acceleration ETV
vector 129 RSUExampleScenario.node[25].veinsmobility co2emission ETV
vector 130 RSUExampleScenario.node[26].veinsmobility posx ETV
vector 131 RSUExampleScenario.node[26].veinsmobility posy ETV
vector 132 RSUExampleScenario.node[26].veinsmobility speed ETV
vector 133 RSUExampleScenario.node[26].veinsmobility acceleration ETV
vector 134 RSUExampleScenario.node[26].veinsmobility co2emission ETV
vector 135 RSUExampleScenario.node[27].veinsmobility posx ETV
vector 136 RSUExampleScenario.node[27].veinsmobility posy ETV
vector 137 RSUExampleScenario.node[27].veinsmobility speed ETV
vector 138 RSUExampleScenario.node[27].veinsmobility acceleration ETV
vector 139 RSUExampleScenario.node[27].veinsmobility co2emission ETV
vector 140 RSUExampleScenario.node[28].veinsmobility posx ETV
vector 141 RSUExampleScenario.node[28].veinsmobility posy ETV
vector 142 RSUExampleScenario.node[28].veinsmobility speed ETV
vector 143 RSUExampleScenario.node[28].veinsmobility acceleration ETV
vector 144 RSUExampleScenario.node[28].veinsmobility co2emission ETV
vector 145 RSUExampleScenario.node[29].veinsmobility posx ETV
vector 146 RSUExampleScenario.node[29].veinsmobility posy ETV
vector 147 RSUExampleScenario.node[29].veinsmobility speed ETV
vector 148 RSUExampleScenario.node[29].veinsmobility acceleration ETV
vector 149 RSUExampleScenario.node[29].veinsmobility co2emission ETV
vector 150 RSUExampleScenario.node[30].veinsmobility posx ETV
vector 151 RSUExampleScenario.node[30].veinsmobility posy ETV
vector 152 RSUExampleScenario.node[30].veinsmobility speed ETV
vector 153 RSUExampleScenario.node[30].veinsmobility acceleration ETV
vector 154 RSUExampleScenario.node[30].veinsmobility co2emission ETV
vector 155 RSUExampleScenario.node[31].veinsmobility posx ETV
vector 156 RSUExampleScenario.node[31].veinsmobility posy ETV
vector 157 RSUExampleScenario.node[31].veinsmobility speed ETV
vector 158 RSUExampleScenario.node[31].veinsmobility acceleration ETV
vector 159 RSUExampleScenario.node[31].veinsmobility co2emission ETV
vector 160 RSUExampleScenario.node[32].veinsmobility posx ETV
vector 161 RSUExampleScenario.node[32].veinsmobility posy ETV
vector 162 RSUExampleScenario.node[32].veinsmobility speed ETV
vector 163 RSUExampleScenario.node[32].veinsmobility acceleration ETV
vector 164 RSUExampleScenario.node[32].veinsmobility co2emission ETV
vector 165 RSUExampleScenario.node[33].veinsmobility posx ETV
vector 166 RSUExampleScenario.node[33].veinsmobility posy ETV
vector 167 RSUExampleScenario.node[33].veinsmobility speed ETV
vector 168 RSUExampleScenario.node[33].veinsmobility acceleration ETV
vector 169 RSUExampleScenario.node[33].veinsmobility co2emission ETV
vector 170 RSUExampleScenario.node[34].veinsmobility posx ETV
vector 171 RSUExampleScenario.node[34].veinsmobility posy ETV
vector 172 RSUExampleScenario.node[34].veinsmobility speed ETV
vector 173 RSUExampleScenario.node[34].veinsmobility acceleration ETV
vector 174 RSUExampleScenario.node[34].veinsmobility co2emission ETV
vector 175 RSUExampleScenario.node[35].veinsmobility posx ETV
vector 176 RSUExampleScenario.node[35].veinsmobility posy ETV
vector 177 RSUExampleScenario.node[35].veinsmobility speed ETV
vector 178 RSUExampleScenario.node[35].veinsmobility acceleration ETV
vector 179 RSUExampleScenario.node[35].veinsmobility co2emission ETV
vector 180 RSUExampleScenario.node[36].veinsmobility posx ETV
vector 181 RSUExampleScenario.node[36].veinsmobility posy ETV
vector 182 RSUExampleScenario.node[36].veinsmobility speed ETV
vector 183 RSUExampleScenario.node[36].veinsmobility acceleration ETV
vector 184 RSUExampleScenario.node[36].veinsmobility co2emission ETV
vector 185 RSUExampleScenario.node[37].veinsmobility posx ETV
vector 186 RSUExampleScenario.node[37].veinsmobility posy ETV
vector 187 RSUExampleScenario.node[37].veinsmobility speed ETV
vector 188 RSUExampleScenario.node[37].veinsmobility acceleration ETV
vector 189 RSUExampleScenario.node[37].veinsmobility co2emission ETV
vector 190 RSUExampleScenario.node[38].veinsmobility posx ETV
vector 191 RSUExampleScenario.node[38].veinsmobility posy ETV
vector 192 RSUExampleScenario.node[38].veinsmobility speed ETV
vector 193 RSUExampleScenario.node[38].veinsmobility acceleration ETV
vector 194 RSUExampleScenario.node[38].veinsmobility co2emission ETV
0	2	1	2414.8476884116
0	3	2	2411.8243290941
0	4	3	2407.1592244543
0	5	4	2402.288200066
0	6	5	2396.1394374635
0	7	6	2388.6993875942
0	8	7	2379.889221533
0	9	8	2370.1207192459
0	10	9	2360.3141803208
0	11	10	2350.5099475634
0	12	11	2341.0010868867
0	13	12	2334.5620136983
0	14	13	2337.6803779466
0	15	14	2348.3497968862
0	16	15	2358.6961674725
0	17	16	2371.6616533546
0	18	17	2385.4706804305
0	19	18	2399.3588350668
0	20	19	2412.4541998667
0	21	20	2421.4418196582
0	22	21	2428.417609864
0	23	22	2431.468930052
0	24	23	2433.1513403206
0	25	24	2435.1237040944
0	26	25	2437.2173147583
0	27	26	2438.6437980286
0	28	27	2439.5074353185
0	29	28	2440.517813261
0	30	29	2441.5286354903
0	31	30	2442.5392864447
0	32	31	2443.5505626462
0	33	32	2444.5611125134
0	34	33	2445.5724211388
0	35	34	2446.5834693939
0	36	35	2447.5934051003
0	37	36	2448.6036931522
0	38	37	2449.6148620235
0	39	38	2450.6248001783
0	40	39	2449.5880553933
0	41	40	2448.4757357414
0	42	41	2447.3635385588
0	43	42	2446.250303259
0	44	43	2445.1365203297
0	45	44	2444.0235521834
0	46	45	2442.9111769209
0	47	46	2441.7982721732
0	48	47	2440.6856421625
0	49	48	2439.7151308154
0	50	49	2438.7725309408
0	51	50	2437.9056889905
0	52	51	2432.8785054281
0	53	52	2422.5273191113
0	54	53	2409.439604845
0	55	54	2395.517893619
0	56	55	2381.592286239
0	57	56	2367.6659531716
0	58	57	2353.7601239877
0	59	58	2339.8337569573
0	60	59	2325.9069679289
0	61	60	2311.9542202253
0	62	61	2298.0325140053
0	63	62	2284.0857072632
0	64	63	2270.1754193477
0	65	64	2256.2378749268
0	66	65	2242.3725172955
0	67	66	2228.5568932705
0	68	67	2214.8035730832
0	69	68	2201.6130456962
0	70	69	2188.4247624045
0	71	70	2175.5107078577
0	72	71	2163.5018647154
0	73	72	2152.2359160049
0	74	73	2144.5614629743
0	76	74	2140.764952604
0	77	75	2140.3209259163
0	78	76	2140.3209259163
0	79	77	2140.3209259163
0	80	78	2140.3209259163
0	81	79	2140.3209259163
0	82	80	2140.3209259163
0	83	81	2140.3209259163
0	84	82	2140.3209259163
0	85	83	2140.3209259163
0	86	84	2140.3209259163
0	87	85	2140.3209259163
0	88	86	2140.3209259163
0	89	87	2140.3209259163
0	90	88	2140.3209259163
0	91	89	2140.3209259163
0	92	90	2140.3209259163
0	93	91	2140.3209259163
0	94	92	2140.3209259163
0	95	93	2140.3209259163
0	96	94	2140.3209259163
0	97	95	2140.3209259163
0	98	96	2140.3209259163
0	99	97	2140.3209259163
0	100	98	2140.3209259163
0	101	99	2140.3209259163
0	102	100	2140.3209259163
0	103	101	2140.3209259163
0	104	102	2140.3209259163
0	105	103	2140.3209259163
0	107	104	2140.3209259163
0	108	105	2140.3209259163
0	109	106	2140.3209259163
0	110	107	2140.3209259163
0	111	108	2140.3209259163
0	112	109	2140.3209259163
0	113	110	2140.3209259163
0	114	111	2140.3209259163
0	115	112	2140.3209259163
0	116	113	2140.3209259163
0	117	114	2140.3209259163
0	118	115	2140.3209259163
0	119	116	2140.3209259163
0	120	117	2140.3209259163
1	2	1	1578.4613427464
1	3	2	1579.5715045081
1	4	3	1581.5561876604
1	5	4	1586.4898643075
1	6	5	1592.7177137369
1	7	6	1600.2534592729
1	8	7	1609.1769437566
1	9	8	1619.0710908128
1	10	9	1629.0037637418
1	11	10	1638.9341008412
1	12	11	1649.1129276818
1	13	12	1661.0453354148
1	14	13	1673.5713017788
1	15	14	1682.4825292248
1	16	15	1691.8131453674
1	17	16	1695.5671389326
1	18	17	1697.3762977775
1	19	18	1698.7149431584
1	20	19	1699.9531973498
1	21	20	1700.8030368192
1	22	21	1701.4822415169
1	23	22	1709.488976148
1	24	23	1720.5600911779
1	25	24	1733.5392477075
1	26	25	1747.3162704222
1	27	26	1761.1584832035
1	28	27	1775.0702432813
1	29	28	1788.9649324082
1	30	29	1802.8657313576
1	31	30	1816.7641749373
1	32	31	1830.6712168986
1	33	32	1844.5682703312
1	34	33	1858.4757581847
1	35	34	1872.3796654344
1	36	35	1886.2682729438
1	37	36	1900.1617258992
1	38	37	1914.0672918586
1	39	38	1927.95593304
1	40	39	1941.8192613758
1	41	40	1955.7024557721
1	42	41	1969.5841215905
1	43	42	1983.4787444612
1	44	43	1997.3802024601
1	45	44	2011.2714909082
1	46	45	2025.1553793969
1	47	46	2039.0458765477
1	48	47	2052.9329446238
1	49	48	2066.8462265795
1	50	49	2080.7728807703
1	51	50	2094.6498483503
1	52	51	2107.3969092406
1	53	52	2116.410831539
1	54	53	2120.9360540062
1	55	54	2120.5048353085
1	56	55	2120.0344859883
1	57	56	2119.5641121576
1	58	57	2119.0944308629
1	59	58	2118.6240558857
1	60	59	2118.1536666537
1	61	60	2117.6824006466
1	62	61	2117.2121830918
1	63	62	2116.7411177447
1	64	63	2116.2712858524
1	65	64	2115.8005333487
1	66	65	2114.7955725584
1	67	66	2112.8364102887
1	68	67	2110.6440530941
1	69	68	2106.1704403665
1	70	69	2101.6975887315
1	71	70	2096.6391956527
1	72	71	2089.5697793076
1	73	72	2082.9376931852
1	74	73	2078.419863862
1	76	74	2076.1849181512
1	77	75	2075.9235266512
1	78	76	2075.9235266512
1	79	77	2075.9235266512
1	80	78	2075.9235266512
1	81	79	2075.9235266512
1	82	80	2075.9235266512
1	83	81	2075.9235266512
1	84	82	2075.9235266512
1	85	83	2075.9235266512
1	86	84	2075.9235266512
1	87	85	2075.9235266512
1	88	86	2075.9235266512
1	89	87	2075.9235266512
1	90	88	2075.9235266512
1	91	89	2075.9235266512
1	92	90	2075.9235266512
1	93	91	2075.9235266512
1	94	92	2075.9235266512
1	95	93	2075.9235266512
1	96	94	2075.9235266512
1	97	95	2075.9235266512
1	98	96	2075.9235266512
1	99	97	2075.9235266512
1	100	98	2075.9235266512
1	101	99	2075.9235266512
1	102	100	2075.9235266512
1	103	101	2075.9235266512
1	104	102	2075.9235266512
1	105	103	2075.9235266512
1	107	104	2075.9235266512
1	108	105	2075.9235266512
1	109	106	2075.9235266512
1	110	107	2075.9235266512
1	111	108	2075.9235266512
1	112	109	2075.9235266512
1	113	110	2075.9235266512
1	114	111	2075.9235266512
1	115	112	2075.9235266512
1	116	113	2075.9235266512
1	117	114	2075.9235266512
1	118	115	2075.9235266512
1	119	116	2075.9235266512
1	120	117	2075.9235266512
2	3	2	4.1061966058897
2	4	3	6.0195495591482
2	5	4	7.7148368984793
2	6	5	9.5879868385225
2	7	6	11.391389363371
2	8	7	13.513839789145
2	9	8	13.99235115225
2	10	9	13.890224446259
2	11	10	13.976677174468
2	12	11	13.994826577434
2	13	12	13.923680325528
2	14	13	13.923542996629
2	15	14	13.91007151508
2	16	15	13.964598868005
2	17	16	13.995233640105
2	18	17	13.952304350403
2	19	18	13.956911946491
2	20	19	11.503494614513
2	21	20	7.0034946145128
2	22	21	7.8970062485022
2	23	22	10.10483181514
2	24	23	11.990706169653
2	25	24	13.981089308816
2	26	25	13.965594365916
2	27	26	13.989059597438
2	28	27	13.956378436291
2	29	28	13.910982951869
2	30	29	13.88918493646
2	31	30	13.908189346099
2	32	31	13.983992603337
2	33	32	13.971500478752
2	34	33	13.873081948087
2	35	34	13.985133641064
2	36	35	13.886848415199
2	37	36	13.876205747321
2	38	37	13.967912819823
2	39	38	13.871047234884
2	40	39	13.89239756926
2	41	40	13.872267716837
2	42	41	13.999815066161
2	43	42	13.964707984752
2	44	43	13.906584702837
2	45	44	13.922364303169
2	46	45	13.929034490574
2	47	46	13.93922677479
2	48	47	13.924399639922
2	49	48	13.96850544848
2	50	49	13.986686690277
2	51	50	13.935194088209
2	52	51	13.930097484484
2	53	52	13.948393711536
2	54	53	13.882971800906
2	55	54	13.87138918183
2	56	55	13.933780807857
2	57	56	13.942265776542
2	58	57	13.95140511482
2	59	58	13.886548467774
2	60	59	13.920721456567
2	61	60	13.906796863726
2	62	61	13.917803910668
2	63	62	13.924582225601
2	64	63	13.959688465288
2	65	64	13.957318032989
2	66	65	13.940553226951
2	67	66	13.998651232829
2	68	67	13.999179182528
2	69	68	13.886099785112
2	70	69	13.881868150404
2	71	70	13.887636745651
2	72	71	13.978686858166
2	73	72	11.380505228889
2	74	73	6.8805052288885
2	76	74	2.3805052288885
2	77	75	0
2	78	76	0
2	79	77	0
2	80	78	0
2	81	79	0
2	82	80	0
2	83	81	0
2	84	82	0
2	85	83	0
2	86	84	0
2	87	85	0
2	88	86	0
2	89	87	0
2	90	88	0
2	91	89	0
2	92	90	0
2	93	91	0
2	94	92	0
2	95	93	0
2	96	94	0
2	97	95	0
2	98	96	0
2	99	97	0
2	100	98	0
2	101	99	0
2	102	100	0
2	103	101	0
2	104	102	0
2	105	103	0
2	107	104	0
2	108	105	0
2	109	106	0
2	110	107	0
2	111	108	0
2	112	109	0
2	113	110	0
2	114	111	0
2	115	112	0
2	116	113	0
2	117	114	0
2	118	115	0
2	119	116	0
2	120	117	0
3	4	3	1.9133529532584
3	5	4	1.6952873393311
3	6	5	1.8731499400432
3	7	6	1.8034025248489
3	8	7	2.1224504257739
3	9	8	0.47851136310433
3	10	9	-0.1021267059911
3	11	10	0.086452728209551
3	12	11	0.018149402965792
3	13	12	-0.071146251906175
3	14	13	-0.0001373288989992
3	15	14	-0.013471481548622
3	16	15	0.054527352924923
3	17	16	0.03063477210002
3	18	17	-0.04292928970186
3	19	18	0.0046075960877356
3	20	19	-2.4534173319781
3	21	20	-4.5
3	22	21	0.8935116339894
3	23	22	2.2078255666373
3	24	23	1.8858743545134
3	25	24	1.9903831391631
3	26	25	-0.01549494290026
3	27	26	0.023465231521987
3	28	27	-0.032681161146611
3	29	28	-0.045395484422334
3	30	29	-0.021798015409148
3	31	30	0.019004409639164
3	32	31	0.075803257238585
3	33	32	-0.012492124584968
3	34	33	-0.098418530665803
3	35	34	0.11205169297755
3	36	35	-0.098285225864965
3	37	36	-0.01064266787842
3	38	37	0.091707072502468
3	39	38	-0.096865584938786
3	40	39	0.021350334375166
3	41	40	-0.020129852422979
3	42	41	0.12754734932445
3	43	42	-0.035107081409079
3	44	43	-0.058123281914741
3	45	44	0.015779600332026
3	46	45	0.0066701874043797
3	47	46	0.010192284216172
3	48	47	-0.014827134867664
3	49	48	0.044105808557942
3	50	49	0.018181241797283
3	51	50	-0.051492602068466
3	52	51	-0.0050966037251055
3	53	52	0.018296227052343
3	54	53	-0.065421910630539
3	55	54	-0.011582619075197
3	56	55	0.062391626026946
3	57	56	0.0084849686850799
3	58	57	0.0091393382777465
3	59	58	-0.064856647045817
3	60	59	0.034172988792415
3	61	60	-0.013924592840485
3	62	61	0.011007046941668
3	63	62	0.0067783149331806
3	64	63	0.035106239686721
3	65	64	-0.0023704322986315
3	66	65	-0.016764806038699
3	67	66	0.058098005878273
3	68	67	0.0005279496987356
3	69	68	-0.11307939741528
3	70	69	-0.0042316347081215
3	71	70	0.0057685952470639
3	72	71	0.091050112515221
3	73	72	-2.598181629278
3	74	73	-4.5
3	76	74	-4.5
3	77	75	-2.3805052288885
3	78	76	0
3	79	77	0
3	80	78	0
3	81	79	0
3	82	80	0
3	83	81	0
3	84	82	0
3	85	83	0
3	86	84	0
3	87	85	0
3	88	86	0
3	89	87	0
3	90	88	0
3	91	89	0
3	92	90	0
3	93	91	0
3	94	92	0
3	95	93	0
3	96	94	0
3	97	95	0
3	98	96	0
3	99	97	0
3	100	98	0
3	101	99	0
3	102	100	0
3	103	101	0
3	104	102	0
3	105	103	0
3	107	104	0
3	108	105	0
3	109	106	0
3	110	107	0
3	111	108	0
3	112	109	0
3	113	110	0
3	114	111	0
3	115	112	0
3	116	113	0
3	117	114	0
3	118	115	0
3	119	116	0
3	120	117	0
4	4	3	4.1962556146115
4	5	4	4.6765885426193
4	6	5	5.9822455727343
4	7	6	6.7469998477461
4	8	7	8.9023657158011
4	9	8	3.651678681686
4	10	9	1.6857621818206
4	11	10	2.3276633668785
4	12	11	2.0995306276608
4	13	12	1.7923040941768
4	14	13	2.0305681317735
4	15	14	1.9844951865828
4	16	15	2.2187318873595
4	17	16	2.1416854339172
4	18	17	1.8896148890835
4	19	18	2.0499339673421
4	20	19	0.973
4	21	20	0.973
4	22	21	3.236958348016
4	23	22	7.0694109561587
4	24	23	7.2974163894139
4	25	24	8.7433911631671
4	26	25	1.9831721788576
4	27	26	2.116835898497
4	28	27	1.9244585801898
4	29	28	1.8775583559564
4	30	29	1.9545657515643
4	31	30	2.0931646705581
4	32	31	2.2926746988581
4	33	32	1.993865292131
4	34	33	1.6968396252803
4	35	34	2.4149847823944
4	36	35	1.6983583398882
4	37	36	1.9906198998388
4	38	37	2.3442713071536
4	39	38	1.7018725964397
4	40	39	2.0993392475273
4	41	40	1.9585122345881
4	42	41	2.4691677522194
4	43	42	1.9170802753567
4	44	43	1.8345014514108
4	45	44	2.0838538984303
4	46	45	2.0539801513469
4	47	46	2.0668686152862
4	48	47	1.9813596940184
4	49	48	2.1840996762636
4	50	49	2.0987681125428
4	51	50	1.8592856847688
4	52	51	2.0145873760113
4	53	52	2.0950692067684
4	54	53	1.8080099866508
4	55	54	1.9870007069688
4	56	55	2.2415869227426
4	57	56	2.0614496349521
4	58	57	2.0646020593826
4	59	58	1.8102089718445
4	60	59	2.1453880261281
4	61	60	1.9826536733129
4	62	61	2.0673636130683
4	63	62	2.0538817544551
4	64	63	2.1528270365066
4	65	64	2.0265038417738
4	66	65	1.9764402783138
4	67	66	2.2347131127692
4	68	67	2.0405446651404
4	69	68	1.6487905152147
4	70	69	2.0126291187762
4	71	70	2.0466796925005
4	72	71	2.3433989621326
4	73	72	0.973
4	74	73	0.973
4	76	74	0.973
4	77	75	0.973
4	78	76	0.973
4	79	77	0.973
4	80	78	0.973
4	81	79	0.973
4	82	80	0.973
4	83	81	0.973
4	84	82	0.973
4	85	83	0.973
4	86	84	0.973
4	87	85	0.973
4	88	86	0.973
4	89	87	0.973
4	90	88	0.973
4	91	89	0.973
4	92	90	0.973
4	93	91	0.973
4	94	92	0.973
4	95	93	0.973
4	96	94	0.973
4	97	95	0.973
4	98	96	0.973
4	99	97	0.973
4	100	98	0.973
4	101	99	0.973
4	102	100	0.973
4	103	101	0.973
4	104	102	0.973
4	105	103	0.973
4	107	104	0.973
4	108	105	0.973
4	109	106	0.973
4	110	107	0.973
4	111	108	0.973
4	112	109	0.973
4	113	110	0.973
4	114	111	0.973
4	115	112	0.973
4	116	113	0.973
4	117	114	0.973
4	118	115	0.973
4	119	116	0.973
4	120	117	0.973
5	5	4	2414.8767583254
5	6	5	2411.8725636174
5	7	6	2407.2970525089
5	8	7	2402.4626210862
5	9	8	2396.3056860371
5	10	9	2388.8743536096
5	11	10	2380.097228827
5	12	11	2370.3507264333
5	13	12	2360.5878487076
5	14	13	2350.7849318213
5	15	14	2341.2418729237
5	16	15	2334.6305580324
5	17	16	2337.3467480277
5	18	17	2348.0519014368
5	19	18	2358.3998493504
5	20	19	2371.2788021446
5	21	20	2385.0887639745
5	22	21	2398.4985461925
5	23	22	2411.2485283293
5	24	23	2420.6905829484
5	25	24	2427.6440450998
5	26	25	2431.3031180431
5	27	26	2432.9057471878
5	28	27	2434.8184996871
5	29	28	2436.9106889558
5	30	29	2438.5031214217
5	31	30	2439.359314087
5	32	31	2440.3695716034
5	33	32	2441.3815056744
5	34	33	2442.392207776
5	35	34	2443.4019859718
5	36	35	2444.4122552489
5	37	36	2445.4251439738
5	38	37	2446.4367595227
5	39	38	2447.4467230743
5	40	39	2448.4574488286
5	41	40	2449.467800329
5	42	41	2450.4780716181
5	43	42	2449.7461704329
5	44	43	2448.6331060936
5	45	44	2447.5209445587
5	46	45	2446.407523851
5	47	46	2445.2946584851
5	48	47	2444.1824360332
5	49	48	2443.0706190476
5	50	49	2441.9568028547
5	51	50	2440.8451110823
5	52	51	2439.8503503047
5	53	52	2438.9091742415
5	54	53	2438.2310626655
5	55	54	2433.9050446447
5	56	55	2424.21615465
5	57	56	2411.3460908785
5	58	57	2397.4706148925
5	59	58	2383.5587488873
5	60	59	2369.633660475
5	61	60	2355.7048479554
5	62	61	2341.7904321874
5	63	62	2327.8638711022
5	64	63	2313.9188814831
5	65	64	2299.9979078089
5	66	65	2286.0826278217
5	67	66	2272.1551827891
5	68	67	2258.2333055256
5	69	68	2244.3319301521
5	70	69	2230.5388995206
5	71	70	2216.7493601282
5	72	71	2203.5089906314
5	73	72	2190.3028214657
5	74	73	2177.2175397498
5	76	74	2166.0508945999
5	77	75	2157.6231104804
5	78	76	2151.7712981963
5	79	77	2148.1230201763
5	80	78	2146.1290875688
5	81	79	2145.2101491778
5	82	80	2144.8407904832
5	83	81	2144.7060883162
5	84	82	2144.6576023959
5	85	83	2144.6402772203
5	86	84	2144.6340603527
5	87	85	2144.6318573126
5	88	86	2144.6310625414
5	89	87	2144.6307734308
5	90	88	2144.6306706183
5	91	89	2144.6306334067
5	92	90	2144.6306210222
5	93	91	2144.6306210222
5	94	92	2144.6306210222
5	95	93	2144.6306210222
5	96	94	2144.6306210222
5	97	95	2144.6306210222
5	98	96	2144.6306210222
5	99	97	2144.6306210222
5	100	98	2144.6306210222
5	101	99	2144.6306210222
5	102	100	2144.6306210222
5	103	101	2144.6306210222
5	104	102	2144.6306210222
5	105	103	2144.6306210222
5	107	104	2144.6306210222
5	108	105	2144.6306210222
5	109	106	2144.6306210222
5	110	107	2144.6306210222
5	111	108	2144.6306210222
5	112	109	2144.6306210222
5	113	110	2144.6306210222
5	114	111	2144.6306210222
5	115	112	2144.6306210222
5	116	113	2144.6306210222
5	117	114	2144.6306210222
5	118	115	2144.6306210222
5	119	116	2144.6306210222
5	120	117	2144.6306210222
6	5	4	1578.4506684253
6	6	5	1579.5537930429
6	7	6	1581.4165868293
6	8	7	1586.3131998433
6	9	8	1592.5493268352
6	10	9	1600.0762428036
6	11	10	1608.9662610246
6	12	11	1618.8381252186
6	13	12	1628.7265753681
6	14	13	1638.6555796713
6	15	14	1648.8046840783
6	16	15	1660.6325348346
6	17	16	1673.301875555
6	18	17	1682.2138796467
6	19	18	1691.5459182626
6	20	19	1695.5099147679
6	21	20	1697.3308411958
6	22	21	1698.6335971011
6	23	22	1699.8391930545
6	24	23	1700.7320023719
6	25	24	1701.2941834759
6	26	25	1708.3978488175
6	27	26	1718.9439634858
6	28	27	1731.5308475178
6	29	28	1745.2985167308
6	30	29	1759.1189484736
6	31	30	1773.033284259
6	32	31	1786.9263172904
6	33	32	1800.8424062571
6	34	33	1814.7415532097
6	35	34	1828.6279946407
6	36	35	1842.5211894047
6	37	36	1856.4504067414
6	38	37	1870.362115399
6	39	38	1884.2511058366
6	40	39	1898.150578063
6	41	40	1912.0449035605
6	42	41	1925.9381259941
6	43	42	1939.8457802581
6	44	43	1953.7382693188
6	45	44	1967.6194902081
6	46	45	1981.5164272105
6	47	46	1995.4064328251
6	48	47	2009.2884140396
6	49	48	2023.165334505
6	50	49	2037.0672076773
6	51	50	2050.942565321
6	52	51	2064.8483957723
6	53	52	2078.754013543
6	54	53	2092.6537938379
6	55	54	2105.6893007364
6	56	55	2115.3934075218
6	57	56	2120.5034639826
6	58	57	2120.5707901428
6	59	58	2120.100904949
6	60	59	2119.6305731572
6	61	60	2119.160115581
6	62	61	2118.6901442679
6	63	62	2118.2197627351
6	64	63	2117.748758764
6	65	64	2117.2785659507
6	66	65	2116.8085654471
6	67	66	2116.3381540589
6	68	67	2115.8679307271
6	69	68	2115.0734324455
6	70	69	2113.117474094
6	71	70	2111.1620108271
6	72	71	2106.8134566117
6	73	72	2102.3345389208
6	74	73	2097.6439806372
6	76	74	2091.0703529529
6	77	75	2086.1090495121
6	78	76	2082.6641800171
6	79	77	2080.516496351
6	80	78	2079.3426997084
6	81	79	2078.8017351869
6	82	80	2078.584299556
6	83	81	2078.5050025163
6	84	82	2078.4764596215
6	85	83	2078.4662605636
6	86	84	2078.4626007918
6	87	85	2078.4613038972
6	88	86	2078.4608360277
6	89	87	2078.4606658332
6	90	88	2078.4606053084
6	91	89	2078.4605834028
6	92	90	2078.4605761124
6	93	91	2078.4605761124
6	94	92	2078.4605761124
6	95	93	2078.4605761124
6	96	94	2078.4605761124
6	97	95	2078.4605761124
6	98	96	2078.4605761124
6	99	97	2078.4605761124
6	100	98	2078.4605761124
6	101	99	2078.4605761124
6	102	100	2078.4605761124
6	103	101	2078.4605761124
6	104	102	2078.4605761124
6	105	103	2078.4605761124
6	107	104	2078.4605761124
6	108	105	2078.4605761124
6	109	106	2078.4605761124
6	110	107	2078.4605761124
6	111	108	2078.4605761124
6	112	109	2078.4605761124
6	113	110	2078.4605761124
6	114	111	2078.4605761124
6	115	112	2078.4605761124
6	116	113	2078.4605761124
6	117	114	2078.4605761124
6	118	115	2078.4605761124
6	119	116	2078.4605761124
6	120	117	2078.4605761124
7	6	5	4.0332649588119
7	7	6	5.8265110515686
7	8	7	7.7852127750962
7	9	8	9.5658873894228
7	10	9	11.450149483434
7	11	10	13.391487500134
7	12	11	13.949883621705
7	13	12	13.87602620427
7	14	13	13.885232782268
7	15	14	13.987373048679
7	16	15	13.890608048609
7	17	16	13.887004709987
7	18	17	13.926980708602
7	19	18	13.89086526999
7	20	19	13.965056618985
7	21	20	13.946692067499
7	22	21	13.097137451398
7	23	22	11.939132677032
7	24	23	7.4783001788439
7	25	24	7.8592269216425
7	26	25	9.5749213322898
7	27	26	11.610942506126
7	28	27	13.581243869506
7	29	28	13.973211987913
7	30	29	13.918392209036
7	31	30	13.928662607018
7	32	31	13.985277111761
7	33	32	13.95532245066
7	34	33	13.938708755139
7	35	34	13.908545650935
7	36	35	13.927478809105
7	37	36	13.897819017794
7	38	37	13.989504252097
7	39	38	13.94374062394
7	40	39	13.903882643976
7	41	40	13.969130632835
7	42	41	13.884234787642
7	43	42	13.881978327318
7	44	43	13.927070145076
7	45	44	13.922745489741
7	46	45	13.95273740395
7	47	46	13.968270483359
7	48	47	13.918685564972
7	49	48	13.921468284922
7	50	49	13.897015957548
7	51	50	13.964752228069
7	52	51	13.91147568828
7	53	52	13.974545761354
7	54	53	13.965476403411
7	55	54	13.989670229855
7	56	55	13.951804798429
7	57	56	13.892850009208
7	58	57	13.958218119799
7	59	58	13.933717581006
7	60	59	13.982012811573
7	61	60	13.954506225567
7	62	61	13.954468280503
7	63	62	13.914126337939
7	64	63	13.998578815588
7	65	64	13.932968401979
7	66	65	13.954534002345
7	67	66	13.957377178506
7	68	67	13.932528918332
7	69	68	13.977439161665
7	70	69	13.873707558191
7	71	70	13.945779315263
7	72	71	13.942668949808
7	73	72	13.91575948562
7	74	73	13.907857767178
7	76	74	11.509649644586
7	77	75	8.354934886828
7	78	76	5.5437759062738
7	79	77	3.307407476074
7	80	78	1.6348540751313
7	81	79	0.71722348573033
7	82	80	0.25744643425691
7	83	81	0.096330583691781
7	84	82	0.033582834564042
7	85	83	0.012074018451278
7	86	84	0.0044146382852531
7	87	85	0.0015233755870791
7	88	86	0.00054909975708676
7	89	87	0.00020074254418819
7	90	88	7.4381901450912e-05
7	91	89	2.6390612555901e-05
7	92	90	0
7	93	91	0
7	94	92	0
7	95	93	0
7	96	94	0
7	97	95	0
7	98	96	0
7	99	97	0
7	100	98	0
7	101	99	0
7	102	100	0
7	103	101	0
7	104	102	0
7	105	103	0
7	107	104	0
7	108	105	0
7	109	106	0
7	110	107	0
7	111	108	0
7	112	109	0
7	113	110	0
7	114	111	0
7	115	112	0
7	116	113	0
7	117	114	0
7	118	115	0
7	119	116	0
7	120	117	0
8	7	6	1.7932460927567
8	8	7	1.9587017235276
8	9	8	1.7806746143266
8	10	9	1.8842620940111
8	11	10	1.9413380167005
8	12	11	0.5583961215709
8	13	12	-0.073857417434921
8	14	13	0.0092065779981212
8	15	14	0.10214026641101
8	16	15	-0.096765000070445
8	17	16	-0.0036033386224883
8	18	17	0.039975998615846
8	19	18	-0.036115438612178
8	20	19	0.074191348995083
8	21	20	-0.018364551486448
8	22	21	-0.84955461610103
8	23	22	-1.1580047743662
8	24	23	-4.4608324981877
8	25	24	0.38092674279862
8	26	25	1.7156944106473
8	27	26	2.0360211738362
8	28	27	1.9703013633797
8	29	28	0.39196811840698
8	30	29	-0.054819778876846
8	31	30	0.010270397982096
8	32	31	0.056614504742901
8	33	32	-0.029954661100637
8	34	33	-0.016613695521373
8	35	34	-0.030163104203529
8	36	35	0.018933158169965
8	37	36	-0.029659791311714
8	38	37	0.091685234303586
8	39	38	-0.045763628156855
8	40	39	-0.039857979963999
8	41	40	0.065247988859191
8	42	41	-0.08489584519295
8	43	42	-0.0022564603248618
8	44	43	0.045091817758511
8	45	44	-0.0043246553349299
8	46	45	0.029991914208512
8	47	46	0.015533079409506
8	48	47	-0.0495849183877
8	49	48	0.0027827199501917
8	50	49	-0.024452327373437
8	51	50	0.067736270520836
8	52	51	-0.053276539789513
8	53	52	0.063070073074195
8	54	53	-0.0090693579427903
8	55	54	0.024193826443517
8	56	55	-0.037865431425162
8	57	56	-0.058954789221753
8	58	57	0.065368110591081
8	59	58	-0.024500538792926
8	60	59	0.048295230567454
8	61	60	-0.027506586005911
8	62	61	-3.7945064249811e-05
8	63	62	-0.040341942564119
8	64	63	0.08445247764932
8	65	64	-0.065610413609539
8	66	65	0.021565600365866
8	67	66	0.0028431761614058
8	68	67	-0.024848260174041
8	69	68	0.044910243332852
8	70	69	-0.10373160347343
8	71	70	0.072071757072118
8	72	71	-0.0031103654555054
8	73	72	-0.02690946418792
8	74	73	-0.0079017184418628
8	76	74	-2.3982081225927
8	77	75	-3.1547147577576
8	78	76	-2.8111589805542
8	79	77	-2.2363684301998
8	80	78	-1.6725534009427
8	81	79	-0.91763058940095
8	82	80	-0.45977705147342
8	83	81	-0.16111585056513
8	84	82	-0.062747749127738
8	85	83	-0.021508816112765
8	86	84	-0.0076593801660245
8	87	85	-0.002891262698174
8	88	86	-0.00097427582999232
8	89	87	-0.00034835721289857
8	90	88	-0.00012636064273728
8	91	89	-4.7991288895011e-05
8	92	90	-2.6390612555901e-05
8	93	91	0
8	94	92	0
8	95	93	0
8	96	94	0
8	97	95	0
8	98	96	0
8	99	97	0
8	100	98	0
8	101	99	0
8	102	100	0
8	103	101	0
8	104	102	0
8	105	103	0
8	107	104	0
8	108	105	0
8	109	106	0
8	110	107	0
8	111	108	0
8	112	109	0
8	113	110	0
8	114	111	0
8	115	112	0
8	116	113	0
8	117	114	0
8	118	115	0
8	119	116	0
8	120	117	0
9	7	6	3.9274001426868
9	8	7	5.2041356246368
9	9	8	5.7574507674447
9	10	9	7.0006276784153
9	11	10	8.2432295261252
9	12	11	3.9110016848773
9	13	12	1.7792042638201
9	14	13	2.0579365757541
9	15	14	2.3818636967155
9	16	15	1.7037407999188
9	17	16	2.0152488537881
9	18	17	2.1655550639215
9	19	18	1.906797412239
9	20	19	2.2849654495652
9	21	20	1.9716653983805
9	22	21	0.973
9	23	22	0.973
9	24	23	0.973
9	25	24	2.2554772362628
9	26	25	5.6120472675651
9	27	26	7.5119842129131
9	28	27	8.4455276517466
9	29	28	3.3560730035355
9	30	29	1.8466200733259
9	31	30	2.0660268329645
9	32	31	2.2281549844786
9	33	32	1.9335288120447
9	34	33	1.9767670407741
9	35	34	1.9283950769156
9	36	35	2.0949799016024
9	37	36	1.9290667558988
9	38	37	2.3468857079218
9	39	38	1.8793040227889
9	40	39	1.8954681876561
9	41	40	2.2553467174174
9	42	41	1.7429567241042
9	43	42	2.0192482635441
9	44	43	2.1827359052182
9	45	44	2.0164367628106
9	46	45	2.1348602115454
9	47	46	2.0878872407227
9	48	47	1.8642059318509
9	49	48	2.0401536442479
9	50	49	1.9464315106901
9	51	50	2.2632042711189
9	52	51	1.851180617826
9	53	52	2.2486511283506
9	54	53	2.0047870143605
9	55	54	2.1193583924862
9	56	55	1.9065956504161
9	57	56	1.8305118457369
9	58	57	2.2544630998412
9	59	58	1.9497933768092
9	60	59	2.199742909699
9	61	60	1.9416842431598
9	62	61	2.0340583936544
9	63	62	1.8947902862501
9	64	63	2.3236156337703
9	65	64	1.8116807487081
9	66	65	2.1067187558746
9	67	66	2.0440470145686
9	68	67	1.9485115452067
9	69	68	2.1878187851485
9	70	69	1.6791237400594
9	71	70	2.2755265645048
9	72	71	2.0225291815531
9	73	72	1.9399893034582
9	74	73	2.0029455902709
9	76	74	0.973
9	77	75	0.973
9	78	76	0.973
9	79	77	0.973
9	80	78	0.973
9	81	79	0.973
9	82	80	0.973
9	83	81	0.973
9	84	82	1.1111121928442
9	85	83	1.1105198636326
9	86	84	1.1102048131311
9	87	85	1.1100724261592
9	88	86	1.1100263596434
9	89	87	1.1100096669672
9	90	88	1.1100035859178
9	91	89	1.1100012727779
9	92	90	0.973
9	93	91	0.973
9	94	92	0.973
9	95	93	0.973
9	96	94	0.973
9	97	95	0.973
9	98	96	0.973
9	99	97	0.973
9	100	98	0.973
9	101	99	0.973
9	102	100	0.973
9	103	101	0.973
9	104	102	0.973
9	105	103	0.973
9	107	104	0.973
9	108	105	0.973
9	109	106	0.973
9	110	107	0.973
9	111	108	0.973
9	112	109	0.973
9	113	110	0.973
9	114	111	0.973
9	115	112	0.973
9	116	113	0.973
9	117	114	0.973
9	118	115	0.973
9	119	116	0.973
9	120	117	0.973
10	8	7	2414.8848622198
10	9	8	2412.0691307599
10	10	9	2407.3819784434
10	11	10	2402.4639103656
10	12	11	2396.2016479742
10	13	12	2388.5021761758
10	14	13	2379.5347220144
10	15	14	2369.7521497252
10	16	15	2359.9648396304
10	17	16	2350.1637192596
10	18	17	2340.717056727
10	19	18	2334.4889366638
10	20	19	2338.0188398167
10	21	20	2348.6970945761
10	22	21	2359.0578910074
10	23	22	2372.1753142256
10	24	23	2385.9847009928
10	25	24	2399.0560799135
10	26	25	2411.469456295
10	27	26	2420.8240344936
10	28	27	2428.2511095385
10	29	28	2431.5096723901
10	30	29	2433.2168502312
10	31	30	2435.2011956087
10	32	31	2437.29147981
10	33	32	2438.672857787
10	34	33	2439.5458305131
10	35	34	2440.5569901068
10	36	35	2441.5662171456
10	37	36	2442.5764760413
10	38	37	2443.5864360537
10	39	38	2444.5969193554
10	40	39	2445.6077267987
10	41	40	2446.6171177449
10	42	41	2447.6285385494
10	43	42	2448.6389437378
10	44	43	2449.6489775468
10	45	44	2450.659299592
10	46	45	2449.5461587089
10	47	46	2448.4337074455
10	48	47	2447.3207898499
10	49	48	2446.207873206
10	50	49	2445.0940501215
10	51	50	2443.9833638043
10	52	51	2442.8694501355
10	53	52	2441.7571938549
10	54	53	2440.6460889142
10	55	54	2439.6824932018
10	56	55	2438.741084579
10	57	56	2437.8178922307
10	58	57	2432.628875918
10	59	58	2422.099758557
10	60	59	2408.9617932498
10	61	60	2395.0275024913
10	62	61	2381.1194986589
10	63	62	2367.2108877165
10	64	63	2353.2913366285
10	65	64	2339.3363710896
10	66	65	2325.3913249692
10	67	66	2311.4476897647
10	68	67	2297.4983647275
10	69	68	2283.5801531249
10	70	69	2269.6389171832
10	71	70	2255.7127677456
10	72	71	2241.8359768615
10	73	72	2228.0496562888
10	74	73	2214.3204117303
10	76	74	2201.130388199
10	77	75	2187.9466372953
10	78	76	2175.8540693277
10	79	77	2166.8951848735
10	80	78	2160.0560415246
10	81	79	2155.1967882412
10	82	80	2152.0658747323
10	83	81	2150.332577554
10	84	82	2149.5013543733
10	85	83	2149.1536897024
10	86	84	2149.0206824628
10	87	85	2148.970440554
10	88	86	2148.9516145713
10	89	87	2148.9445340966
10	90	88	2148.9418844085
10	91	89	2148.9408915628
10	92	90	2148.9405195947
10	93	91	2148.9403842667
10	94	92	2148.9403354223
10	95	93	2148.9403177497
10	96	94	2148.9403159113
10	97	95	2148.9403159113
10	98	96	2148.9403159113
10	99	97	2148.9403159113
10	100	98	2148.9403159113
10	101	99	2148.9403159113
10	102	100	2148.9403159113
10	103	101	2148.9403159113
10	104	102	2148.9403159113
10	105	103	2148.9403159113
10	107	104	2148.9403159113
10	108	105	2148.9403159113
10	109	106	2148.9403159113
10	110	107	2148.9403159113
10	111	108	2148.9403159113
10	112	109	2148.9403159113
10	113	110	2148.9403159113
10	114	111	2148.9403159113
10	115	112	2148.9403159113
10	116	113	2148.9403159113
10	117	114	2148.9403159113
10	118	115	2148.9403159113
10	119	116	2148.9403159113
10	120	117	2148.9403159113
11	8	7	1578.4476927174
11	9	8	1579.4816146148
11	10	9	1581.3305685576
11	11	10	1586.311893981
11	12	11	1592.6547030602
11	13	12	1600.4532072712
11	14	13	1609.5360029312
11	15	14	1619.4444009606
11	16	15	1629.3575977338
11	17	16	1639.2847824143
11	18	17	1649.4765304932
11	19	18	1661.4854336744
11	20	19	1673.8446300924
11	21	20	1682.7957309801
11	22	21	1692.1393567109
11	23	22	1695.6439150097
11	24	23	1697.4374776948
11	25	24	1698.6863156371
11	26	25	1699.860083269
11	27	26	1700.7446211064
11	28	27	1701.4003788568
11	29	28	1709.757081449
11	30	29	1720.9911797
11	31	30	1734.0491812732
11	32	31	1747.8043141738
11	33	32	1761.6824669717
11	34	33	1775.5982529195
11	35	34	1789.5036912933
11	36	35	1803.3825532272
11	37	36	1817.2756052278
11	38	37	1831.1645469936
11	39	38	1845.0606850199
11	40	39	1858.9612806309
11	41	40	1872.8423966132
11	42	41	1886.7514271513
11	43	42	1900.646490965
11	44	43	1914.536447579
11	45	44	1928.4487420022
11	46	45	1942.3421864314
11	47	46	1956.2270235084
11	48	47	1970.117681019
11	49	48	1984.0083266487
11	50	49	1997.9102858361
11	51	50	2011.7730940934
11	52	51	2025.6761838896
11	53	52	2039.5585873295
11	54	53	2053.4266205495
11	55	54	2067.3284383547
11	56	55	2081.2374921273
11	57	56	2095.1151711773
11	58	57	2107.8121583294
11	59	58	2116.6019557538
11	60	59	2120.9589145361
11	61	60	2120.4882719275
11	62	61	2120.0185171831
11	63	62	2119.548741932
11	64	63	2119.0785971684
11	65	64	2118.6072562514
11	66	65	2118.1362503711
11	67	66	2117.6652921457
11	68	67	2117.1941417418
11	69	68	2116.724042221
11	70	69	2116.2531650327
11	71	70	2115.7827974036
11	72	71	2114.7194869779
11	73	72	2112.7644801643
11	74	73	2110.4801872596
11	76	74	2106.0067454157
11	77	75	2101.5354309557
11	78	76	2096.841327128
11	79	77	2091.5673733056
11	80	78	2087.5412776032
11	81	79	2084.6807119204
11	82	80	2082.8375925729
11	83	81	2081.8172278916
11	84	82	2081.3278999301
11	85	83	2081.1232352275
11	86	84	2081.0449359659
11	87	85	2081.0153593477
11	88	86	2081.0042767888
11	89	87	2081.0001086248
11	90	88	2080.9985487955
11	91	89	2080.9979643226
11	92	90	2080.9977453509
11	93	91	2080.9976656856
11	94	92	2080.9976369319
11	95	93	2080.9976265281
11	96	94	2080.9976254459
11	97	95	2080.9976254459
11	98	96	2080.9976254459
11	99	97	2080.9976254459
11	100	98	2080.9976254459
11	101	99	2080.9976254459
11	102	100	2080.9976254459
11	103	101	2080.9976254459
11	104	102	2080.9976254459
11	105	103	2080.9976254459
11	107	104	2080.9976254459
11	108	105	2080.9976254459
11	109	106	2080.9976254459
11	110	107	2080.9976254459
11	111	108	2080.9976254459
11	112	109	2080.9976254459
11	113	110	2080.9976254459
11	114	111	2080.9976254459
11	115	112	2080.9976254459
11	116	113	2080.9976254459
11	117	114	2080.9976254459
11	118	115	2080.9976254459
11	119	116	2080.9976254459
11	120	117	2080.9976254459
12	9	8	3.930963162637
12	10	9	5.9263112237273
12	11	10	7.8381960794392
12	12	11	9.790430662247
12	13	12	11.728100012452
12	14	13	13.629514704516
12	15	14	13.941568216505
12	16	15	13.881279769889
12	17	16	13.897868440901
12	18	17	13.925429278756
12	19	18	13.988464023101
12	20	19	13.968606978769
12	21	20	13.918509052745
12	22	21	13.924308654484
12	23	22	13.951645852409
12	24	23	13.87926841794
12	25	24	12.793519969494
12	26	25	11.84351296104
12	27	26	7.4038563960913
12	28	27	8.4727548549238
12	29	28	10.367830629347
12	30	29	12.18869854925
12	31	30	13.961659159465
12	32	31	13.954832898835
12	33	32	13.985199820679
12	34	33	13.894128147855
12	35	34	13.93747920732
12	36	35	13.922516686122
12	37	36	13.936551663636
12	38	37	13.899921349036
12	39	38	13.905686459227
12	40	39	13.974518650502
12	41	40	13.926188751743
12	42	41	13.91506882193
12	43	42	13.902084701743
12	44	43	13.906688486487
12	45	44	13.974945872892
12	46	45	13.897515056985
12	47	46	13.921723058985
12	48	47	13.971591069859
12	49	48	13.925448836959
12	50	49	13.871581884674
12	51	50	13.876423048137
12	52	51	13.873938687814
12	53	52	13.902598275633
12	54	53	13.87539361449
12	55	54	13.972987024514
12	56	55	13.957628285089
12	57	56	13.950985880545
12	58	57	13.943263569523
12	59	58	13.891897078918
12	60	59	13.874182712052
12	61	60	13.982985400616
12	62	61	13.927164004399
12	63	62	13.899862960158
12	64	63	13.960168966714
12	65	64	13.961850514959
12	66	65	13.962242161995
12	67	66	13.925234322341
12	68	67	13.991972472956
12	69	68	13.975208927125
12	70	69	13.946616810667
12	71	70	13.894927249895
12	72	71	13.997537077854
12	73	72	13.937148143742
12	74	73	13.949254455173
12	76	74	13.997392567724
12	77	75	13.892845066143
12	78	76	11.787824280837
12	79	77	9.2477227385416
12	80	78	6.86540096584
12	81	79	4.7046209588023
12	82	80	2.8641315859363
12	83	81	1.435280022115
12	84	82	0.62780889662581
12	85	83	0.25782569870556
12	86	84	0.096787157257653
12	87	85	0.035636258771308
12	88	86	0.013565543513394
12	89	87	0.0050639734029256
12	90	88	0.0018787172702089
12	91	89	0.00070582553049211
12	92	90	0.00026406233787358
12	93	91	9.3151448616844e-05
12	94	92	3.3809168557487e-05
12	95	93	1.2560654992417e-05
12	96	94	0
12	97	95	0
12	98	96	0
12	99	97	0
12	100	98	0
12	101	99	0
12	102	100	0
12	103	101	0
12	104	102	0
12	105	103	0
12	107	104	0
12	108	105	0
12	109	106	0
12	110	107	0
12	111	108	0
12	112	109	0
12	113	110	0
12	114	111	0
12	115	112	0
12	116	113	0
12	117	114	0
12	118	115	0
12	119	116	0
12	120	117	0
13	10	9	1.9953480610903
13	11	10	1.9118848557118
13	12	11	1.9522345828079
13	13	12	1.9376693502045
13	14	13	1.9014146920643
13	15	14	0.31205351198868
13	16	15	-0.060288446615449
13	17	16	0.016588671011849
13	18	17	0.027560837855562
13	19	18	0.063034744344186
13	20	19	-0.019857044331729
13	21	20	-0.050097926023881
13	22	21	0.0057996017392714
13	23	22	0.027337197924499
13	24	23	-0.072377434468363
13	25	24	-1.0857484484466
13	26	25	-0.95000700845353
13	27	26	-4.439656564949
13	28	27	1.0688984588324
13	29	28	1.8950757744233
13	30	29	1.8208679199032
13	31	30	1.7729606102145
13	32	31	-0.0068262606300422
13	33	32	0.03036692184396
13	34	33	-0.091071672823745
13	35	34	0.043351059465204
13	36	35	-0.01496252119774
13	37	36	0.014034977513365
13	38	37	-0.036630314600188
13	39	38	0.0057651101914225
13	40	39	0.068832191275433
13	41	40	-0.048329898759256
13	42	41	-0.01111992981285
13	43	42	-0.012984120186884
13	44	43	0.0046037847432316
13	45	44	0.068257386405021
13	46	45	-0.077430815906265
13	47	46	0.02420800199965
13	48	47	0.049868010873906
13	49	48	-0.046142232900019
13	50	49	-0.053866952285171
13	51	50	0.0048411634634249
13	52	51	-0.0024843603232867
13	53	52	0.028659587819128
13	54	53	-0.027204661143477
13	55	54	0.09759341002442
13	56	55	-0.015358739425428
13	57	56	-0.0066424045432356
13	58	57	-0.007722311022226
13	59	58	-0.051366490605288
13	60	59	-0.017714366866276
13	61	60	0.10880268856417
13	62	61	-0.055821396217215
13	63	62	-0.027301044240593
13	64	63	0.06030600655591
13	65	64	0.0016815482452515
13	66	65	0.00039164703572148
13	67	66	-0.037007839654107
13	68	67	0.066738150615711
13	69	68	-0.0167635458312
13	70	69	-0.028592116457874
13	71	70	-0.051689560771921
13	72	71	0.10260982795851
13	73	72	-0.060388934111689
13	74	73	0.01210631143069
13	76	74	0.048138112551532
13	77	75	-0.10454750158125
13	78	76	-2.1050207853061
13	79	77	-2.5401015422956
13	80	78	-2.3823217727016
13	81	79	-2.1607800070377
13	82	80	-1.840489372866
13	83	81	-1.4288515638212
13	84	82	-0.80747112548923
13	85	83	-0.36998319792025
13	86	84	-0.1610385414479
13	87	85	-0.061150898486345
13	88	86	-0.022070715257914
13	89	87	-0.0085015701104686
13	90	88	-0.0031852561327167
13	91	89	-0.0011728917397168
13	92	90	-0.00044176319261853
13	93	91	-0.00017091088925674
13	94	92	-5.9342280059357e-05
13	95	93	-2.124851356507e-05
13	96	94	-1.2560654992417e-05
13	97	95	0
13	98	96	0
13	99	97	0
13	100	98	0
13	101	99	0
13	102	100	0
13	103	101	0
13	104	102	0
13	105	103	0
13	107	104	0
13	108	105	0
13	109	106	0
13	110	107	0
13	111	108	0
13	112	109	0
13	113	110	0
13	114	111	0
13	115	112	0
13	116	113	0
13	117	114	0
13	118	115	0
13	119	116	0
13	120	117	0
14	10	9	4.2649508166984
14	11	10	5.1441608835298
14	12	11	6.2752675611406
14	13	12	7.3015557220543
14	14	13	8.2469806235914
14	15	14	3.0813423760871
14	16	15	1.825038103975
14	17	16	2.0839753981971
14	18	17	2.1237162576214
14	19	18	2.2501690272635
14	20	19	1.9687844028223
14	21	20	1.8624692368163
14	22	21	2.0505690853877
14	23	22	2.1258147014109
14	24	23	1.7844264067381
14	25	24	0.973
14	26	25	0.973
14	27	26	0.973
14	28	27	3.7575341079103
14	29	28	6.4482222684255
14	30	29	7.2140195323343
14	31	30	8.0005078452345
14	32	31	2.0112657729674
14	33	32	2.1396802881933
14	34	33	1.7230808185304
14	35	34	2.1780640158967
14	36	35	1.980720158986
14	37	36	2.0794954629949
14	38	37	1.9059152732614
14	39	38	2.0485298427513
14	40	39	2.2680539427787
14	41	40	1.8690933945628
14	42	41	1.9928741031296
14	43	42	1.9853406570184
14	44	43	2.0447410785649
14	45	44	2.2661688405632
14	46	45	1.7690384486571
14	47	46	2.1120645090544
14	48	47	2.2038504354464
14	49	48	1.8763684319447
14	50	49	1.8456610488087
14	51	50	2.0424227277346
14	52	51	2.0176736696174
14	53	52	2.1249196677245
14	54	53	1.9351566644326
14	55	54	2.3647248781457
14	56	55	1.9828454643184
14	57	56	2.0114971183472
14	58	57	2.007091813677
14	59	58	1.8558336695686
14	60	59	1.9667740746073
14	61	60	2.4037578966905
14	62	61	1.844036691971
14	63	62	1.9371616602798
14	64	63	2.2376623461065
14	65	64	2.0405988072341
14	66	65	2.0362986285583
14	67	66	1.9070037954822
14	68	67	2.2630700095878
14	69	68	1.9798474403324
14	70	69	1.9372818212763
14	71	70	1.8550225742329
14	72	71	2.3847397299678
14	73	72	1.8295794064806
14	74	73	2.0743518631084
14	76	74	2.2009680002035
14	77	75	1.6778590032699
14	78	76	0.973
14	79	77	0.973
14	80	78	0.973
14	81	79	0.973
14	82	80	0.973
14	83	81	0.973
14	84	82	0.973
14	85	83	0.973
14	86	84	0.973
14	87	85	1.1111939126964
14	88	86	1.1105822463489
14	89	87	1.1102339106232
14	90	88	1.1100891871306
14	91	89	1.1100338495101
14	92	90	1.1100127102538
14	93	91	1.110004489789
14	94	92	1.1100016304708
14	95	93	1.1100006058617
14	96	94	0.973
14	97	95	0.973
14	98	96	0.973
14	99	97	0.973
14	100	98	0.973
14	101	99	0.973
14	102	100	0.973
14	103	101	0.973
14	104	102	0.973
14	105	103	0.973
14	107	104	0.973
14	108	105	0.973
14	109	106	0.973
14	110	107	0.973
14	111	108	0.973
14	112	109	0.973
14	113	110	0.973
14	114	111	0.973
14	115	112	0.973
14	116	113	0.973
14	117	114	0.973
14	118	115	0.973
14	119	116	0.973
14	120	117	0.973
15	11	10	2414.8652957816
15	12	11	2411.9402292009
15	13	12	2407.1594214574
15	14	13	2402.0350675649
15	15	14	2395.5354035812
15	16	15	2387.5598131203
15	17	16	2378.2983909701
15	18	17	2368.4972038758
15	19	18	2358.719633554
15	20	19	2348.9248444787
15	21	20	2339.614370346
15	22	21	2334.1997176057
15	23	22	2339.4193692133
15	24	23	2350.023330241
15	25	24	2360.3662725991
15	26	25	2373.90233667
15	27	26	2387.7152259793
15	28	27	2400.5914429313
15	29	28	2412.9398871803
15	30	29	2421.7139854309
15	31	30	2429.0882121673
15	32	31	2431.6639768599
15	33	32	2433.4302155024
15	34	33	2435.4611475593
15	35	34	2437.5533698815
15	36	35	2438.7684759141
15	37	36	2439.671540139
15	38	37	2440.6813741141
15	39	38	2441.6917844916
15	40	39	2442.7022041357
15	41	40	2443.7124593587
15	42	41	2444.7229332504
15	43	42	2445.7337078364
15	44	43	2446.7459111849
15	45	44	2447.757486716
15	46	45	2448.7683903823
15	47	46	2449.7777371067
15	48	47	2450.5176811377
15	49	48	2449.4057673637
15	50	49	2448.2921364765
15	51	50	2447.1808208324
15	52	51	2446.0691226661
15	53	52	2444.9566500478
15	54	53	2443.8447802094
15	55	54	2442.731477023
15	56	55	2441.6197022425
15	57	56	2440.5080080784
15	58	57	2439.5670555097
15	59	58	2438.6556009268
15	60	59	2437.5062560235
15	61	60	2431.5722499692
15	62	61	2420.527699944
15	63	62	2407.2382113171
15	64	63	2393.3269784888
15	65	64	2379.3955530388
15	66	65	2365.4745847809
15	67	66	2351.529199079
15	68	67	2337.6079130118
15	69	68	2323.6725767179
15	70	69	2309.7385225614
15	71	70	2295.8080973643
15	72	71	2281.8952010303
15	73	72	2267.9654732505
15	74	73	2254.0466482575
15	76	74	2240.1839215464
15	77	75	2226.3952670011
15	78	76	2212.7433891206
15	79	77	2199.5532363574
15	80	78	2186.6275330838
15	81	79	2175.9886347088
15	82	80	2168.1516067662
15	83	81	2162.2726257491
15	84	82	2158.2011129982
15	85	83	2155.6801527158
15	86	84	2154.3186951779
15	87	85	2153.678918281
15	88	86	2153.4155323968
15	89	87	2153.3141532131
15	90	88	2153.2745719261
15	91	89	2153.2593924446
15	92	90	2153.2536030475
15	93	91	2153.2513771506
15	94	92	2153.250521
15	95	93	2153.2501948733
15	96	94	2153.2500716704
15	97	95	2153.2500274283
15	98	96	2153.2500117157
15	99	97	2153.2500108459
15	100	98	2153.2500108459
15	101	99	2153.2500108459
15	102	100	2153.2500108459
15	103	101	2153.2500108459
15	104	102	2153.2500108459
15	105	103	2153.2500108459
15	107	104	2153.2500108459
15	108	105	2153.2500108459
15	109	106	2153.2500108459
15	110	107	2153.2500108459
15	111	108	2153.2500108459
15	112	109	2153.2500108459
15	113	110	2153.2500108459
15	114	111	2153.2500108459
15	115	112	2153.2500108459
15	116	113	2153.2500108459
15	117	114	2153.2500108459
15	118	115	2153.2500108459
15	119	116	2153.2500108459
15	120	117	2153.2500108459
16	11	10	1578.4548774119
16	12	11	1579.5289465943
16	13	12	1581.5559881236
16	14	13	1586.7462526578
16	15	14	1593.3295168448
16	16	15	1601.4076912217
16	17	16	1610.7882359559
16	18	17	1620.7154882178
16	19	18	1630.6188199436
16	20	19	1640.5395918936
16	21	20	1650.8881406859
16	22	21	1663.2272230769
16	23	22	1674.9756418047
16	24	23	1683.991763521
16	25	24	1693.3192880014
16	26	25	1695.9020503219
16	27	26	1697.6139621651
16	28	27	1698.8314944636
16	29	28	1699.9991223291
16	30	29	1700.8287719106
16	31	30	1701.8119543158
16	32	31	1710.77248332
16	33	32	1722.3952316754
16	34	33	1735.7597972872
16	35	34	1749.5276840087
16	36	35	1763.4065813264
16	37	36	1777.3270081691
16	38	37	1791.2142166747
16	39	38	1805.1093518483
16	40	39	1819.0046144547
16	41	40	1832.8976159496
16	42	41	1846.7936245678
16	43	42	1860.6937683271
16	44	43	1874.6135603888
16	45	44	1888.5247187214
16	46	45	1902.4266375881
16	47	46	1916.3071454344
16	48	47	1930.2163243052
16	49	48	1944.0944528161
16	50	49	1957.9940131316
16	51	50	1971.8646762054
16	52	51	1985.7401136523
16	53	52	1999.6252172682
16	54	53	2013.5027974071
16	55	54	2027.3982675895
16	56	55	2041.2746612821
16	57	56	2055.1500487765
16	58	57	2069.0339985425
16	59	58	2082.9232102502
16	60	59	2096.7668430749
16	61	60	2109.1502521159
16	62	61	2117.3046830418
16	63	62	2120.90069908
16	64	63	2120.4308352731
16	65	64	2119.9602894429
16	66	65	2119.4900968131
16	67	66	2119.0190794626
16	68	67	2118.5488760993
16	69	68	2118.0781981768
16	70	69	2117.6075635599
16	71	70	2117.1370515134
16	72	71	2116.6671315199
16	73	72	2116.1966430303
16	74	73	2115.7265227912
16	76	74	2114.4852127647
16	77	75	2112.5298749758
16	78	76	2109.945334618
16	79	77	2105.4718489451
16	80	78	2101.0880522262
16	81	79	2096.9205436436
16	82	80	2092.3070090357
16	83	81	2088.846145737
16	84	82	2086.4493104676
16	85	83	2084.9652609546
16	86	84	2084.1637923988
16	87	85	2083.7871658411
16	88	86	2083.6321147298
16	89	87	2083.5724344049
16	90	88	2083.5491335262
16	91	89	2083.5401976053
16	92	90	2083.5367894787
16	93	91	2083.5354791284
16	94	92	2083.5349751255
16	95	93	2083.5347831398
16	96	94	2083.5347106121
16	97	95	2083.5346845677
16	98	96	2083.5346753178
16	99	97	2083.5346748056
16	100	98	2083.5346748056
16	101	99	2083.5346748056
16	102	100	2083.5346748056
16	103	101	2083.5346748056
16	104	102	2083.5346748056
16	105	103	2083.5346748056
16	107	104	2083.5346748056
16	108	105	2083.5346748056
16	109	106	2083.5346748056
16	110	107	2083.5346748056
16	111	108	2083.5346748056
16	112	109	2083.5346748056
16	113	110	2083.5346748056
16	114	111	2083.5346748056
16	115	112	2083.5346748056
16	116	113	2083.5346748056
16	117	114	2083.5346748056
16	118	115	2083.5346748056
16	119	116	2083.5346748056
16	120	117	2083.5346748056
17	12	11	4.0076977833542
17	13	12	6.1677344774264
17	14	13	8.1549676716625
17	15	14	10.178332106699
17	16	15	12.262859039094
17	17	16	13.909239285488
17	18	17	13.972104677679
17	19	18	13.964405047395
17	20	19	13.904001857305
17	21	20	13.959390929798
17	22	21	13.878038117993
17	23	22	13.946876353603
17	24	23	13.944667257406
17	25	24	13.919344021892
17	26	25	13.927560248445
17	27	26	13.871213583788
17	28	27	12.691334807668
17	29	28	11.253789109264
17	30	29	6.8021452137647
17	31	30	8.5806848426844
17	32	31	10.511503565412
17	33	32	12.634297992723
17	34	33	13.965718502484
17	35	34	13.984844662666
17	36	35	13.956789441942
17	37	36	13.956542154332
17	38	37	13.917345386401
17	39	38	13.978046209081
17	40	39	13.982312166321
17	41	40	13.915473192113
17	42	41	13.879970237834
17	43	42	13.897895857247
17	44	43	13.999869057706
17	45	44	13.978634591533
17	46	45	13.942230677728
17	47	46	13.955766034983
17	48	47	13.950300372976
17	49	48	13.917481608128
17	50	49	13.942320762996
17	51	50	13.893100212866
17	52	51	13.91633811252
17	53	52	13.928179549885
17	54	53	13.968941585214
17	55	54	13.947614409933
17	56	55	13.993828555658
17	57	56	13.915365449623
17	58	57	13.876728287677
17	59	58	13.918426910553
17	60	59	13.974088552413
17	61	60	13.92781890474
17	62	61	13.871840020602
17	63	62	13.950818891171
17	64	63	13.896373478309
17	65	64	13.98123223257
17	66	65	13.934642261642
17	67	66	13.995758003502
17	68	67	13.879077432866
17	69	68	13.899420192223
17	70	69	13.964884717481
17	71	70	13.997399434138
17	72	71	13.963054893557
17	73	72	13.99507131309
17	74	73	13.959758597296
17	76	74	13.999156328384
17	77	75	13.969890658425
17	78	76	13.980162032277
17	79	77	13.896995161234
17	80	78	12.895918457595
17	81	79	10.316482094486
17	82	80	8.1005376777642
17	83	81	5.8820015731492
17	84	82	3.8731803985188
17	85	83	2.2660461003021
17	86	84	1.1103220699793
17	87	85	0.49973008570276
17	88	86	0.19564597656583
17	89	87	0.072656340015803
17	90	88	0.02889018793561
17	91	89	0.011199915834752
17	92	90	0.0042896108442745
17	93	91	0.0015860882725188
17	94	92	0.00061948919181399
17	95	93	0.00023260561173226
17	96	94	8.6047036281624e-05
17	97	95	3.144975391383e-05
17	98	96	1.1232174912716e-05
17	99	97	0
17	100	98	0
17	101	99	0
17	102	100	0
17	103	101	0
17	104	102	0
17	105	103	0
17	107	104	0
17	108	105	0
17	109	106	0
17	110	107	0
17	111	108	0
17	112	109	0
17	113	110	0
17	114	111	0
17	115	112	0
17	116	113	0
17	117	114	0
17	118	115	0
17	119	116	0
17	120	117	0
18	13	12	2.1600366940722
18	14	13	1.9872331942362
18	15	14	2.0233644350362
18	16	15	2.0845269323955
18	17	16	1.6463802463939
18	18	17	0.062865392190869
18	19	18	-0.0076996302837493
18	20	19	-0.060403190089856
18	21	20	0.055389072492252
18	22	21	-0.081352811804972
18	23	22	0.068838235610166
18	24	23	-0.0022090961970385
18	25	24	-0.025323235513643
18	26	25	0.0082162265526122
18	27	26	-0.056346664656886
18	28	27	-1.1798787761197
18	29	28	-1.4375456984038
18	30	29	-4.4516438954996
18	31	30	1.7785396289197
18	32	31	1.9308187227277
18	33	32	2.1227944273106
18	34	33	1.3314205097611
18	35	34	0.01912616018206
18	36	35	-0.028055220723617
18	37	36	-0.00024728761054682
18	38	37	-0.039196767930406
18	39	38	0.060700822679792
18	40	39	0.0042659572395483
18	41	40	-0.06683897420764
18	42	41	-0.035502954279073
18	43	42	0.017925619413145
18	44	43	0.10197320045903
18	45	44	-0.021234466172753
18	46	45	-0.036403913805263
18	47	46	0.013535357255023
18	48	47	-0.0054656620067544
18	49	48	-0.032818764848635
18	50	49	0.024839154868388
18	51	50	-0.049220550130123
18	52	51	0.023237899653614
18	53	52	0.011841437364929
18	54	53	0.040762035329827
18	55	54	-0.021327175281478
18	56	55	0.046214145724662
18	57	56	-0.078463106034324
18	58	57	-0.038637161946388
18	59	58	0.041698622875845
18	60	59	0.055661641859915
18	61	60	-0.046269647672306
18	62	61	-0.055978884138167
18	63	62	0.078978870569262
18	64	63	-0.054445412862115
18	65	64	0.084858754260932
18	66	65	-0.046589970928617
18	67	66	0.061115741860121
18	68	67	-0.11668057063594
18	69	68	0.0203427593573
18	70	69	0.065464525257703
18	71	70	0.032514716656879
18	72	71	-0.034344540580641
18	73	72	0.032016419533175
18	74	73	-0.035312715794426
18	76	74	0.039397731088101
18	77	75	-0.029265669959132
18	78	76	0.010271373852158
18	79	77	-0.083166871042923
18	80	78	-1.0010767036393
18	81	79	-2.5794363631086
18	82	80	-2.2159444167219
18	83	81	-2.218536104615
18	84	82	-2.0088211746303
18	85	83	-1.6071342982168
18	86	84	-1.1557240303228
18	87	85	-0.61059198427652
18	88	86	-0.30408410913693
18	89	87	-0.12298963655003
18	90	88	-0.043766152080193
18	91	89	-0.017690272100858
18	92	90	-0.0069103049904777
18	93	91	-0.0027035225717557
18	94	92	-0.00096659908070479
18	95	93	-0.00038688358008173
18	96	94	-0.00014655857545063
18	97	95	-5.4597282367795e-05
18	98	96	-2.0217579001114e-05
18	99	97	-1.1232174912716e-05
18	100	98	0
18	101	99	0
18	102	100	0
18	103	101	0
18	104	102	0
18	105	103	0
18	107	104	0
18	108	105	0
18	109	106	0
18	110	107	0
18	111	108	0
18	112	109	0
18	113	110	0
18	114	111	0
18	115	112	0
18	116	113	0
18	117	114	0
18	118	115	0
18	119	116	0
18	120	117	0
19	13	12	4.6399364442395
19	14	13	5.459099048015
19	15	14	6.6616810382017
19	16	15	8.0324172249288
19	17	16	7.5484463594625
19	18	17	2.247674957111
19	19	18	2.0092894812461
19	20	19	1.8266349661585
19	21	20	2.2210298717235
19	22	21	1.7543037306746
19	23	22	2.264789170887
19	24	23	2.0257606197441
19	25	24	1.9456524984792
19	26	25	2.059016748537
19	27	26	1.8373388380236
19	28	27	0.973
19	29	28	0.973
19	30	29	0.973
19	31	30	5.2602175796137
19	32	31	6.6156566027659
19	33	32	8.3694083781091
19	34	33	6.5165491496521
19	35	34	2.1017560319966
19	36	35	1.9400571066544
19	37	36	2.0335662245147
19	38	37	1.8989280401226
19	39	38	2.2410813776431
19	40	39	2.0514099723484
19	41	40	1.8060532207838
19	42	41	1.9078333116417
19	43	42	2.0884562634303
19	44	43	2.3828885778754
19	45	44	1.9651224554136
19	46	45	1.910615850939
19	47	46	2.0798426520326
19	48	47	2.015384407742
19	49	48	1.9203331804895
19	50	49	2.1164070517746
19	51	50	1.8631262853673
19	52	51	2.108230627045
19	53	52	2.0712498573739
19	54	53	2.1728920736305
19	55	54	1.9617970432444
19	56	55	2.1940726512002
19	57	56	1.7670612526642
19	58	57	1.8970499029483
19	59	58	2.1703787731
19	60	59	2.2236475952785
19	61	60	1.876156120652
19	62	61	1.8386234882413
19	63	62	2.2993516664104
19	64	63	1.8459222947006
19	65	64	2.3228538313892
19	66	65	1.8757004712267
19	67	66	2.2445546956586
19	68	67	1.6362226447506
19	69	68	2.096714827559
19	70	69	2.2555743425322
19	71	70	2.1482652379368
19	72	71	1.9194912088098
19	73	72	2.1463276308042
19	74	73	1.9159241804067
19	76	74	2.1716810577018
19	77	75	1.9372331757794
19	78	76	2.0714211235731
19	79	77	1.7497841862042
19	80	78	0.973
19	81	79	0.973
19	82	80	0.973
19	83	81	0.973
19	84	82	0.973
19	85	83	0.973
19	86	84	0.973
19	87	85	0.973
19	88	86	0.973
19	89	87	0.973
19	90	88	1.1110889415151
19	91	89	1.110492534846
19	92	90	1.1101997869873
19	93	91	1.1100754794845
19	94	92	1.1100297398484
19	95	93	1.1100111992068
19	96	94	1.1100041478698
19	97	95	1.1100015167223
19	98	96	1.1100005417854
19	99	97	0.973
19	100	98	0.973
19	101	99	0.973
19	102	100	0.973
19	103	101	0.973
19	104	102	0.973
19	105	103	0.973
19	107	104	0.973
19	108	105	0.973
19	109	106	0.973
19	110	107	0.973
19	111	108	0.973
19	112	109	0.973
19	113	110	0.973
19	114	111	0.973
19	115	112	0.973
19	116	113	0.973
19	117	114	0.973
19	118	115	0.973
19	119	116	0.973
19	120	117	0.973
20	14	13	2414.9020294819
20	15	14	2411.9226306152
20	16	15	2407.1557433844
20	17	16	2402.1104710221
20	18	17	2395.7699587477
20	19	18	2388.0304223568
20	20	19	2379.4738079484
20	21	20	2370.893774931
20	22	21	2362.3077945379
20	23	22	2353.7435980395
20	24	23	2345.1609503828
20	25	24	2337.382531011
20	26	25	2333.9513923901
20	27	26	2339.5342791209
20	28	27	2348.8453277851
20	29	28	2357.9087556405
20	30	29	2368.8976739903
20	31	30	2380.9775286298
20	32	31	2393.1030453129
20	33	32	2405.2335576123
20	34	33	2416.5418459401
20	35	34	2423.9663700609
20	36	35	2430.570008137
20	37	36	2432.1000471369
20	38	37	2433.9002697327
20	39	38	2435.9543662666
20	40	39	2437.9596728822
20	41	40	2438.9494181712
20	42	41	2439.9070256213
20	43	42	2440.9176562928
20	44	43	2441.9269052453
20	45	44	2442.9366141059
20	46	45	2443.9464281293
20	47	46	2444.9573541252
20	48	47	2445.9691156872
20	49	48	2446.979716951
20	50	49	2447.9896090399
20	51	50	2448.9998733379
20	52	51	2450.0085675253
20	53	52	2450.2645866362
20	54	53	2449.1499465979
20	55	54	2448.0369973981
20	56	55	2446.9233345203
20	57	56	2445.8120863364
20	58	57	2444.7009855164
20	59	58	2443.5879624323
20	60	59	2442.4739204658
20	61	60	2441.3600381962
20	62	61	2440.2864050268
20	63	62	2439.3445139695
20	64	63	2438.5901630576
20	65	64	2436.8932832642
20	66	65	2429.488703159
20	67	66	2417.5025738811
20	68	67	2403.9129781366
20	69	68	2389.9861979192
20	70	69	2376.0739265668
20	71	70	2362.1500415469
20	72	71	2348.2060115275
20	73	72	2334.2734054149
20	74	73	2320.3213743683
20	76	74	2306.390282625
20	77	75	2292.4858088302
20	78	76	2278.5482186148
20	79	77	2264.6132597643
20	80	78	2250.6824459058
20	81	79	2236.8438325393
20	82	80	2223.0330148104
20	83	81	2209.5218306775
20	84	82	2196.3177326269
20	85	83	2183.693116775
20	86	84	2174.0416856013
20	87	85	2167.2818817057
20	88	86	2162.71175364
20	89	87	2159.9769870267
20	90	88	2158.5746910878
20	91	89	2157.9475926691
20	92	90	2157.702537205
20	93	91	2157.6121599022
20	94	92	2157.5789576767
20	95	93	2157.5667994937
20	96	94	2157.5623236503
20	97	95	2157.5606581948
20	98	96	2157.5600474938
20	99	97	2157.5598237769
20	100	98	2157.5597431303
20	101	99	2157.5597140451
20	102	100	2157.5597056779
20	103	101	2157.5597056779
20	104	102	2157.5597056779
20	105	103	2157.5597056779
20	107	104	2157.5597056779
20	108	105	2157.5597056779
20	109	106	2157.5597056779
20	110	107	2157.5597056779
20	111	108	2157.5597056779
20	112	109	2157.5597056779
20	113	110	2157.5597056779
20	114	111	2157.5597056779
20	115	112	2157.5597056779
20	116	113	2157.5597056779
20	117	114	2157.5597056779
20	118	115	2157.5597056779
20	119	116	2157.5597056779
20	120	117	2157.5597056779
21	14	13	1578.4413889889
21	15	14	1579.5354087027
21	16	15	1581.5597135043
21	17	16	1586.6698793434
21	18	17	1593.0919447746
21	19	18	1600.9310288979
21	20	19	1609.5977004888
21	21	20	1618.2880919036
21	22	21	1626.984507191
21	23	22	1635.6588583943
21	24	23	1644.3518980779
21	25	24	1653.7452424029
21	26	25	1665.1186078088
21	27	26	1675.0684384657
21	28	27	1682.929411401
21	29	28	1691.1030376544
21	30	29	1695.1540113101
21	31	30	1696.8415124407
21	32	31	1698.123416462
21	33	32	1699.2704374064
21	34	33	1700.3397115832
21	35	34	1700.9751795586
21	36	35	1703.8619754324
21	37	36	1713.6420474732
21	38	37	1725.4884275207
21	39	38	1739.0054271705
21	40	39	1752.7795728892
21	41	40	1766.6691963989
21	42	41	1780.5653979182
21	43	42	1794.4635625677
21	44	43	1808.342725859
21	45	44	1822.2282137927
21	46	45	1836.1151479203
21	47	46	1850.0173738636
21	48	47	1863.9310904881
21	49	48	1877.8288507257
21	50	49	1891.7168584093
21	51	50	1905.6099847034
21	52	51	1919.4815188777
21	53	52	1933.3752725068
21	54	53	1947.287428339
21	55	54	1961.1784803104
21	56	55	1975.07843991
21	57	56	1988.9482609928
21	58	57	2002.8162427824
21	59	58	2016.7082169261
21	60	59	2030.6129080458
21	61	60	2044.5156059386
21	62	61	2058.405807049
21	63	62	2072.3219886608
21	64	63	2086.2172475774
21	65	64	2100.0155986995
21	66	65	2111.7128415443
21	67	66	2118.6569472738
21	68	67	2120.7883864809
21	69	68	2120.3179975469
21	70	69	2119.8480986627
21	71	70	2119.3778075166
21	72	71	2118.9068359565
21	73	72	2118.436250248
21	74	73	2117.965008446
21	76	74	2117.4944738867
21	77	75	2117.0248383721
21	78	76	2116.5540843215
21	79	77	2116.0834191469
21	80	78	2115.6128939744
21	81	79	2114.0115623279
21	82	80	2112.0530816279
21	83	81	2108.8527319925
21	84	82	2104.3745167274
21	85	83	2100.0928348433
21	86	84	2095.774405445
21	87	85	2091.7950156257
21	88	86	2089.1046533929
21	89	87	2087.4947394682
21	90	88	2086.6692299908
21	91	89	2086.3000670532
21	92	90	2086.1558067705
21	93	91	2086.1026030798
21	94	92	2086.0830574539
21	95	93	2086.0759001235
21	96	94	2086.0732652647
21	97	95	2086.0722848373
21	98	96	2086.0719253272
21	99	97	2086.0717936289
21	100	98	2086.0717461538
21	101	99	2086.0717290314
21	102	100	2086.0717241056
21	103	101	2086.0717241056
21	104	102	2086.0717241056
21	105	103	2086.0717241056
21	107	104	2086.0717241056
21	108	105	2086.0717241056
21	109	106	2086.0717241056
21	110	107	2086.0717241056
21	111	108	2086.0717241056
21	112	109	2086.0717241056
21	113	110	2086.0717241056
21	114	111	2086.0717241056
21	115	112	2086.0717241056
21	116	113	2086.0717241056
21	117	114	2086.0717241056
21	118	115	2086.0717241056
21	119	116	2086.0717241056
21	120	117	2086.0717241056
22	15	14	4.1202440707026
22	16	15	6.098204819389
22	17	16	7.9892263333931
22	18	17	9.9395148638858
22	19	18	11.888312638128
22	20	19	12.215156767303
22	21	20	12.204687935296
22	22	21	12.224623291104
22	23	22	12.210776680999
22	24	23	12.179672799767
22	25	24	12.160016026092
22	26	25	12.139849843977
22	27	26	12.143721937142
22	28	27	12.197962211408
22	29	28	12.182525644068
22	30	29	12.239106989266
22	31	30	12.235862109773
22	32	31	12.230306803957
22	33	32	12.179537976573
22	34	33	9.6862829881538
22	35	34	6.6424673210172
22	36	35	8.8478549035121
22	37	36	10.859035527671
22	38	37	12.909402498856
22	39	38	13.992245385351
22	40	39	13.943547738914
22	41	40	13.916770352069
22	42	41	13.945535122917
22	43	42	13.906703865982
22	44	43	13.929781103753
22	45	44	13.945612282939
22	46	45	13.915959525181
22	47	46	13.967522231955
22	48	47	13.972525620006
22	49	48	13.883536923684
22	50	49	13.909812615521
22	51	50	13.926507747294
22	52	51	13.897951097498
22	53	52	13.93396450304
22	54	53	13.967009024217
22	55	54	13.893721483571
22	56	55	13.88568516843
22	57	56	13.927406547926
22	58	57	13.918185825639
22	59	58	13.942741125419
22	60	59	13.888825567171
22	61	60	13.956811681101
22	62	61	13.967852384013
22	63	62	13.917130999181
22	64	63	13.962056111419
22	65	64	13.973261172024
22	66	65	13.976665152721
22	67	66	13.929094264333
22	68	67	13.988442988638
22	69	68	13.963501574658
22	70	69	13.904512311171
22	71	70	13.881385968712
22	72	71	13.955823229789
22	73	72	13.91319160128
22	74	73	13.978148939102
22	76	74	13.952216081487
22	77	75	13.876740762778
22	78	76	13.930089543043
22	79	77	13.916144249656
22	80	78	13.998410794288
22	81	79	13.980069159993
22	82	80	13.95930730181
22	83	81	13.968128457202
22	84	82	13.906429463343
22	85	83	12.184502506689
22	86	84	9.3192249987393
22	87	85	6.6715766769864
22	88	86	4.2657116295168
22	89	87	2.3706573523306
22	90	88	1.1367262909708
22	91	89	0.4721427191851
22	92	90	0.17087061469064
22	93	91	0.063811635136954
22	94	92	0.024096188599995
22	95	93	0.0085789835087094
22	96	94	0.0032882934305194
22	97	95	0.0012074349591621
22	98	96	0.00044403026240924
22	99	97	0.00015569476014245
22	100	98	5.6592506510574e-05
22	101	99	1.9919880872917e-05
22	102	100	0
22	103	101	0
22	104	102	0
22	105	103	0
22	107	104	0
22	108	105	0
22	109	106	0
22	110	107	0
22	111	108	0
22	112	109	0
22	113	110	0
22	114	111	0
22	115	112	0
22	116	113	0
22	117	114	0
22	118	115	0
22	119	116	0
22	120	117	0
23	16	15	1.9779607486865
23	17	16	1.8910215140041
23	18	17	1.9502885304927
23	19	18	1.9487977742427
23	20	19	0.32684412917498
23	21	20	-0.010468832007609
23	22	21	0.019935355808121
23	23	22	-0.013846610104666
23	24	23	-0.031103881231974
23	25	24	-0.019656773675234
23	26	25	-0.020166182115208
23	27	26	0.0038720931648282
23	28	27	0.054240274266339
23	29	28	-0.015436567340512
23	30	29	0.056581345198211
23	31	30	-0.0032448794925592
23	32	31	-0.0055553058162339
23	33	32	-0.050768827383871
23	34	33	-2.4932549884193
23	35	34	-3.0438156671366
23	36	35	2.2053875824949
23	37	36	2.0111806241586
23	38	37	2.0503669711854
23	39	38	1.082842886495
23	40	39	-0.048697646437214
23	41	40	-0.026777386844623
23	42	41	0.028764770848211
23	43	42	-0.038831256935373
23	44	43	0.023077237771357
23	45	44	0.015831179185771
23	46	45	-0.02965275775874
23	47	46	0.051562706774567
23	48	47	0.0050033880514082
23	49	48	-0.088988696322776
23	50	49	0.026275691837073
23	51	50	0.016695131773595
23	52	51	-0.028556649796665
23	53	52	0.036013405541889
23	54	53	0.033044521177652
23	55	54	-0.07328754064627
23	56	55	-0.0080363151407798
23	57	56	0.041721379496158
23	58	57	-0.009220722287429
23	59	58	0.024555299780332
23	60	59	-0.053915558247827
23	61	60	0.067986113929656
23	62	61	0.01104070291156
23	63	62	-0.050721384831705
23	64	63	0.044925112237689
23	65	64	0.011205060605425
23	66	65	0.0034039806970405
23	67	66	-0.047570888388437
23	68	67	0.059348724305165
23	69	68	-0.024941413979978
23	70	69	-0.058989263486584
23	71	70	-0.023126342459582
23	72	71	0.07443726107711
23	73	72	-0.042631628508678
23	74	73	0.064957337821832
23	76	74	-0.025932857615407
23	77	75	-0.075475318708923
23	78	76	0.053348780265079
23	79	77	-0.013945293386932
23	80	78	0.082266544632148
23	81	79	-0.018341634294485
23	82	80	-0.02076185818296
23	83	81	0.0088211553916349
23	84	82	-0.061698993858881
23	85	83	-1.7219269566543
23	86	84	-2.8652775079497
23	87	85	-2.6476483217528
23	88	86	-2.4058650474696
23	89	87	-1.8950542771863
23	90	88	-1.2339310613598
23	91	89	-0.6645835717857
23	92	90	-0.30127210449446
23	93	91	-0.10705897955369
23	94	92	-0.039715446536959
23	95	93	-0.015517205091286
23	96	94	-0.00529069007819
23	97	95	-0.0020808584713572
23	98	96	-0.00076340469675287
23	99	97	-0.00028833550226679
23	100	98	-9.9102253631878e-05
23	101	99	-3.6672625637658e-05
23	102	100	-1.9919880872917e-05
23	103	101	0
23	104	102	0
23	105	103	0
23	107	104	0
23	108	105	0
23	109	106	0
23	110	107	0
23	111	108	0
23	112	109	0
23	113	110	0
23	114	111	0
23	115	112	0
23	116	113	0
23	117	114	0
23	118	115	0
23	119	116	0
23	120	117	0
24	16	15	4.3320714987557
24	17	16	5.183486961616
24	18	17	6.3519610936481
24	19	18	7.4221751260776
24	20	19	2.8298121443499
24	21	20	1.8359013100526
24	22	21	1.9272118037584
24	23	22	1.8264910266966
24	24	23	1.7731570813911
24	25	24	1.8050958468359
24	26	25	1.8019031629654
24	27	26	1.8725806391293
24	28	27	2.0255422754474
24	29	28	1.8193896864997
24	30	29	2.0366725650512
24	31	30	1.8599189826534
24	32	31	1.8526149529095
24	33	32	1.7154241454235
24	34	33	0.973
24	35	34	0.973
24	36	35	6.303427561984
24	37	36	7.0154445701984
24	38	37	8.3105242583869
24	39	38	5.6895407911334
24	40	39	1.8694269918782
24	41	40	1.940528745875
24	42	41	2.1299480592744
24	43	42	1.8991694406835
24	44	43	2.1091372507868
24	45	44	2.0864880630902
24	46	45	1.9308080812489
24	47	46	2.2090898398184
24	48	47	2.0528811368149
24	49	48	1.7292056532406
24	50	49	2.1177127068995
24	51	50	2.0873649665686
24	52	51	1.9327741224938
24	53	52	2.1530281120875
24	54	53	2.1466978352857
24	55	54	1.7825965253946
24	56	55	2.0002810933209
24	57	56	2.1714609797662
24	58	57	1.999553894506
24	59	58	2.1154986829051
24	60	59	1.8470270282863
24	61	60	2.2631030576132
24	62	61	2.0727204260443
24	63	62	1.8602543209442
24	64	63	2.1861282607859
24	65	64	2.0738417857687
24	66	65	2.0479224526271
24	67	66	1.8719038420292
24	68	67	2.237740187174
24	69	68	1.9511766336835
24	70	69	1.8314175593046
24	71	70	1.9493699794006
24	72	71	2.2846833100323
24	73	72	1.8870266347629
24	74	73	2.2554324657204
24	76	74	1.9467570144346
24	77	75	1.7738534084078
24	78	76	2.2107965887972
24	79	77	1.9835051352325
24	80	78	2.3162204831367
24	81	79	1.9750085314323
24	82	80	1.9648337724802
24	83	81	2.0652777009624
24	84	82	1.8225039990261
24	85	83	0.973
24	86	84	0.973
24	87	85	0.973
24	88	86	0.973
24	89	87	0.973
24	90	88	0.973
24	91	89	0.973
24	92	90	0.973
24	93	91	0.973
24	94	92	1.110931766626
24	95	93	1.1103817678578
24	96	94	1.1101544345191
24	97	95	1.1100576411498
24	98	96	1.1100213383269
24	99	97	1.1100074998962
24	100	98	1.1100027286709
24	101	99	1.110000960759
24	102	100	0.973
24	103	101	0.973
24	104	102	0.973
24	105	103	0.973
24	107	104	0.973
24	108	105	0.973
24	109	106	0.973
24	110	107	0.973
24	111	108	0.973
24	112	109	0.973
24	113	110	0.973
24	114	111	0.973
24	115	112	0.973
24	116	113	0.973
24	117	114	0.973
24	118	115	0.973
24	119	116	0.973
24	120	117	0.973
25	17	16	2414.866372544
25	18	17	2411.9174920589
25	19	18	2407.1873548935
25	20	19	2402.1033929951
25	21	20	2395.6770685576
25	22	21	2387.9239549194
25	23	22	2378.7440047435
25	24	23	2368.9560721758
25	25	24	2359.1622850237
25	26	25	2349.3790714815
25	27	26	2340.0066479368
25	28	27	2334.2982135796
25	29	28	2338.9199148722
25	30	29	2349.5394145362
25	31	30	2359.6285321664
25	32	31	2372.2737052037
25	33	32	2385.1868441795
25	34	33	2397.5486702835
25	35	34	2407.0889696613
25	36	35	2415.9658388555
25	37	36	2423.647086352
25	38	37	2430.5697055
25	39	38	2432.1309365664
25	40	39	2433.9420996767
25	41	40	2436.0121670167
25	42	41	2438.0026650226
25	43	42	2438.973087457
25	44	43	2439.9357083738
25	45	44	2440.9457836029
25	46	45	2441.9557050534
25	47	46	2442.966328533
25	48	47	2443.9770825638
25	49	48	2444.9875938372
25	50	49	2445.9973880129
25	51	50	2447.0079984484
25	52	51	2448.0195114657
25	53	52	2449.0300190145
25	54	53	2450.0409876643
25	55	54	2450.2291497608
25	56	55	2449.1158151244
25	57	56	2448.0031307412
25	58	57	2446.8896077783
25	59	58	2445.7771886681
25	60	59	2444.6627922727
25	61	60	2443.5487240007
25	62	61	2442.4356510476
25	63	62	2441.3226709429
25	64	63	2440.2525785718
25	65	64	2439.3108728111
[...]
146	116	113	1760.3738682121
146	117	114	1774.3114976808
146	118	115	1788.2207711358
146	119	116	1802.1270135324
146	120	117	1816.0162843885
147	91	89	4.0013211675714
147	92	90	5.8143858679225
147	93	91	7.5613634765687
147	94	92	9.7458537510484
147	95	93	11.704442393056
147	96	94	13.710967943585
147	97	95	13.967370514323
147	98	96	13.97242824421
147	99	97	13.999199340187
147	100	98	13.962116121056
147	101	99	13.933822563267
147	102	100	13.901684735613
147	103	101	13.991085348653
147	104	102	13.975537452945
147	105	103	13.981830481871
147	107	104	13.994288270697
147	108	105	12.516141830482
147	109	106	12.056319585563
147	110	107	7.6473167209
147	111	108	7.963076929103
147	112	109	10.036606277812
147	113	110	12.142265794801
147	114	111	13.904917252329
147	115	112	13.962780757458
147	116	113	13.905065072475
147	117	114	13.985163884258
147	118	115	13.982793581325
147	119	116	13.911364435097
147	120	117	13.930047270625
148	92	90	1.8130647003511
148	93	91	1.7469776086463
148	94	92	2.1844902744796
148	95	93	1.9585886420077
148	96	94	2.0065255505289
148	97	95	0.25640257073762
148	98	96	0.0050577298877759
148	99	97	0.026771095977166
148	100	98	-0.037083219131455
148	101	99	-0.028293557788711
148	102	100	-0.032137827654369
148	103	101	0.089400613040198
148	104	102	-0.015547895708588
148	105	103	0.0062930289260112
148	107	104	0.012457788826433
148	108	105	-1.4781464402155
148	109	106	-0.45982224491836
148	110	107	-4.4090028646632
148	111	108	0.31576020820299
148	112	109	2.0735293487087
148	113	110	2.1056595169893
148	114	111	1.7626514575283
148	115	112	0.057863505128772
148	116	113	-0.057715684983414
148	117	114	0.080098811783827
148	118	115	-0.0023703029332669
148	119	116	-0.071429146227892
148	120	117	0.018682835528161
149	92	90	3.9492323757996
149	93	91	4.6981943303404
149	94	92	6.7964762074918
149	95	93	7.3474754039101
149	96	94	8.6397759745869
149	97	95	2.8985913333218
149	98	96	2.0530540416967
149	99	97	2.1290860466151
149	100	98	1.9101876746331
149	101	99	1.9370663178208
149	102	100	1.9211304105346
149	103	101	2.3393792765675
149	104	102	1.9839741802452
149	105	103	2.0581906067505
149	107	104	2.0802774163039
149	108	105	0.973
149	109	106	0.973
149	110	107	0.973
149	111	108	2.1467608422762
149	112	109	6.7030616196547
149	113	110	8.0228807637171
149	114	111	7.9359260352661
149	115	112	2.2297482965997
149	116	113	1.8357338998061
149	117	114	2.3072939238207
149	118	115	2.029096552557
149	119	116	1.790311579326
149	120	117	2.0944132547961
150	93	91	2414.8606245739
150	94	92	2411.8764565148
150	95	93	2407.2247922372
150	96	94	2402.2329132988
150	97	95	2395.904481165
150	98	96	2388.1911267573
150	99	97	2379.0311558184
150	100	98	2369.2309284883
150	101	99	2359.4539213619
150	102	100	2349.6644090366
150	103	101	2340.2675432409
150	104	102	2334.3695889099
150	105	103	2338.5973985757
150	107	104	2349.2446220529
150	108	105	2359.5976084457
150	109	106	2372.8855963921
150	110	107	2386.694470837
150	111	108	2399.6106056226
150	112	109	2411.9586521412
150	113	110	2421.1136136507
150	114	111	2428.3187569663
150	115	112	2431.4734626233
150	116	113	2433.1161208075
150	117	114	2435.052774136
150	118	115	2437.1441867409
150	119	116	2438.6116216875
150	120	117	2439.4720012374
151	93	91	1578.4565926548
151	94	92	1579.5523635913
151	95	93	1581.4897765294
151	96	94	1586.5458621858
151	97	95	1592.9556920985
151	98	96	1600.7682574801
151	99	97	1610.0460461145
151	100	98	1619.9723262675
151	101	99	1629.8750875536
151	102	100	1639.7905148827
151	103	101	1650.0519777192
151	104	102	1662.2041921625
151	105	103	1674.3118510842
151	107	104	1683.2895049732
151	108	105	1692.626087415
151	109	106	1695.7500797613
151	110	107	1697.5174429491
151	111	108	1698.7387497462
151	112	109	1699.906340003
151	113	110	1700.7720027501
151	114	111	1701.4336388428
151	115	112	1709.5188027713
151	116	113	1720.328328873
151	117	114	1733.0724925138
151	118	115	1746.8350508846
151	119	116	1760.6813523015
151	120	117	1774.5829547914
152	94	92	4.0929231651139
152	95	93	5.9906896421535
152	96	94	7.9514762463106
152	97	95	9.9005059713463
152	98	96	11.902643679642
152	99	97	13.940859806718
152	100	98	13.908840599209
152	101	99	13.897563728902
152	102	100	13.925334702113
152	103	101	13.969999221691
152	104	102	13.873366627463
152	105	103	13.944335233425
152	107	104	13.890309347045
152	108	105	13.96873234903
152	109	106	13.917132706628
152	110	107	13.94463796732
152	111	108	12.510796949286
152	112	109	11.65745014657
152	113	110	7.178271662102
152	114	111	8.1237661359959
152	115	112	10.012730934123
152	116	113	11.737227975338
152	117	114	13.860695872308
152	118	115	13.872179971011
152	119	116	13.926994643528
152	120	117	13.878980701687
153	95	93	1.8977664770395
153	96	94	1.9607866041572
153	97	95	1.9490297250356
153	98	96	2.0021377082961
153	99	97	2.0382161270757
153	100	98	-0.032019207509006
153	101	99	-0.011276870307046
153	102	100	0.027770973211155
153	103	101	0.044664519578218
153	104	102	-0.096632594228721
153	105	103	0.070968605962115
153	107	104	-0.054025886380114
153	108	105	0.078423001985067
153	109	106	-0.051599642401563
153	110	107	0.027505260691978
153	111	108	-1.4338410180341
153	112	109	-0.85334680271616
153	113	110	-4.4791784844679
153	114	111	0.94549447389392
153	115	112	1.8889647981268
153	116	113	1.7244970412157
153	117	114	2.1234678969695
153	118	115	0.011484098703464
153	119	116	0.054814672516658
153	120	117	-0.0480139418412
154	95	93	4.158764086306
154	96	94	5.2974884507475
154	97	95	6.3276769708033
154	98	96	7.5831667564525
154	99	97	8.880686804981
154	100	98	1.9222012590366
154	101	99	1.990612754222
154	102	100	2.1244111998222
154	103	101	2.1861494492654
154	104	102	1.7028330357734
154	105	103	2.2716467601775
154	107	104	1.8467893261902
154	108	105	2.2996529168346
154	109	106	1.8573087727484
154	110	107	2.1256174277063
154	111	108	0.973
154	112	109	0.973
154	113	110	0.973
154	114	111	3.4025330233425
154	115	112	6.2439470909666
154	116	113	6.703612312363
154	117	114	9.1179268217973
154	118	115	2.0641953628974
154	119	116	2.2153612292441
154	120	117	1.8658940332417
155	96	94	2414.8345383538
155	97	95	2411.7921256482
155	98	96	2407.0864814951
155	99	97	2402.132386612
155	100	98	2395.7983188427
155	101	99	2388.1195620884
155	102	100	2379.0020808444
155	103	101	2369.2045644406
155	104	102	2359.3950672023
155	105	103	2349.598772413
155	107	104	2340.2135405464
155	108	105	2334.3552150509
155	109	106	2338.6494919553
155	110	107	2349.3008365452
155	111	108	2359.6555345602
155	112	109	2372.9563717548
155	113	110	2386.7650689685
155	114	111	2399.8470661935
155	115	112	2412.2857861625
155	116	113	2421.3120025779
155	117	114	2428.3957260202
155	118	115	2431.5054468
155	119	116	2433.2040395003
155	120	117	2435.2119840703
156	96	94	1578.4661713783
156	97	95	1579.5833294457
156	98	96	1581.6298662564
156	99	97	1586.6476818705
156	100	98	1593.0632199049
156	101	99	1600.8407426309
156	102	100	1610.0754950577
156	103	101	1619.9990294157
156	104	102	1629.9346987093
156	105	103	1639.85699574
156	107	104	1650.1211095732
156	108	105	1662.2907571197
156	109	106	1674.3539196206
156	110	107	1683.3402006105
156	111	108	1692.6783266366
156	112	109	1695.760658443
156	113	110	1697.5241184747
156	114	111	1698.7611086722
156	115	112	1699.9372727098
156	116	113	1700.7907617474
156	117	114	1701.4714819603
156	118	115	1709.7292749174
156	119	116	1720.9068785766
156	120	117	1734.1201748364
157	97	95	4.2052558286512
157	98	96	6.002893242219
157	99	97	7.883161900444
157	100	98	9.8673883035709
157	101	99	11.853042240334
157	102	100	13.869080203711
157	103	101	13.883913346287
157	104	102	13.920034354662
157	105	103	13.987348329513
157	107	104	13.90432364187
157	108	105	13.873058298954
157	109	106	13.982427640071
157	110	107	13.981702302136
157	111	108	13.892212413012
157	112	109	13.884079835846
157	113	110	13.939466363527
157	114	111	12.83774633777
157	115	112	11.520501545161
157	116	113	7.0716538057442
157	117	114	8.1133146383905
157	118	115	10.264509357995
157	119	116	12.214292868149
157	120	117	13.95033479064
158	98	96	1.7976374135679
158	99	97	1.880268658225
158	100	98	1.984226403127
158	101	99	1.9856539367628
158	102	100	2.0160379633773
158	103	101	0.014833142575785
158	104	102	0.036121008375193
158	105	103	0.067313974851276
158	107	104	-0.083024687643627
158	108	105	-0.031265342915431
158	109	106	0.1093693411164
158	110	107	-0.00072533793514573
158	111	108	-0.089489889123943
158	112	109	-0.0081325771659611
158	113	110	0.055386527681257
158	114	111	-1.1017200257574
158	115	112	-1.3172447926082
158	116	113	-4.4488477394171
158	117	114	1.0416608326463
158	118	115	2.1511947196047
158	119	116	1.9497835101536
158	120	117	1.7360419224912
159	98	96	4.0201994287793
159	99	97	5.1077529096115
159	100	98	6.3933259660444
159	101	99	7.5078138857943
159	102	100	8.7639896884138
159	103	101	2.0766261205432
159	104	102	2.15184739874
159	105	103	2.264462834961
159	107	104	1.7508597190297
159	108	105	1.9213582253302
159	109	106	2.405595628934
159	110	107	2.0345282639374
159	111	108	1.7282238207284
159	112	109	1.9997988908087
159	113	110	2.2187197196282
159	114	111	0.973
159	115	112	0.973
159	116	113	0.973
159	117	114	3.5874913416034
159	118	115	7.0265759013037
159	119	116	7.6070234144162
159	120	117	7.8703898154433
160	99	97	2414.8810770222
160	100	98	2412.0153888349
160	101	99	2407.3710593774
160	102	100	2402.5073859703
160	103	101	2396.3145508688
160	104	102	2388.7267279918
160	105	103	2380.5461638676
160	107	104	2372.3770710515
160	108	105	2364.1995157663
160	109	106	2356.0370465319
160	110	107	2347.856246747
160	111	108	2340.0933683867
160	112	109	2334.6953258149
160	113	110	2335.4114344699
160	114	111	2344.3045772007
160	115	112	2353.0019664175
160	116	113	2361.8150759437
160	117	114	2373.3444753689
160	118	115	2384.8893931807
160	119	116	2396.4757519478
160	120	117	2408.03911561
161	99	97	1578.4490826223
161	100	98	1579.5013483688
161	101	99	1581.3416280663
161	102	100	1586.2678591823
161	103	101	1592.5403479822
161	104	102	1600.2257672166
161	105	103	1608.5115516763
161	107	104	1616.7857172806
161	108	105	1625.0684542004
161	109	106	1633.335911029
161	110	107	1641.6219341801
161	111	108	1650.2749486417
161	112	109	1660.2424781155
161	113	110	1671.4484678907
161	114	111	1678.9207410384
161	115	112	1686.677972232
161	116	113	1694.0953865862
161	117	114	1695.8186676763
161	118	115	1697.3071116218
161	119	116	1698.4423283972
161	120	117	1699.5357216503
162	100	98	3.9195603011693
162	101	99	5.8047475024131
162	102	100	7.789297424702
162	103	101	9.6794611797347
162	104	102	11.659319502495
162	105	103	11.659747689132
162	107	104	11.643673477893
162	108	105	11.665321025707
162	109	106	11.582236455128
162	110	107	11.668017776351
162	111	108	11.588170031408
162	112	109	11.64112125112
162	113	110	11.675054164134
162	114	111	11.690614702022
162	115	112	11.609580781011
162	116	113	11.633011027647
162	117	114	11.682145404919
162	118	115	11.66549088718
162	119	116	11.689019769638
162	120	117	11.621993755939
163	101	99	1.8851872012438
163	102	100	1.9845499222889
163	103	101	1.8901637550327
163	104	102	1.9798583227607
163	105	103	0.00042818663641775
163	107	104	-0.016074211238882
163	108	105	0.021647547814062
163	109	106	-0.08308457057923
163	110	107	0.085781321222894
163	111	108	-0.079847744943109
163	112	109	0.052951219712849
163	113	110	0.033932913013269
163	114	111	0.015560537888669
163	115	112	-0.081033921011258
163	116	113	0.02343024663627
163	117	114	0.049134377271404
163	118	115	-0.016654517739081
163	119	116	0.023528882458342
163	120	117	-0.06702601369936
164	101	99	4.0453611473868
164	102	100	5.2548522348047
164	103	101	6.0699942565079
164	104	102	7.3820588240483
164	105	103	1.8201028340263
164	107	104	1.7724131711472
164	108	105	1.8802372410215
164	109	106	1.5803439561382
164	110	107	2.0608268025488
164	111	108	1.5897717309428
164	112	109	1.9658556174589
164	113	110	1.915692100306
164	114	111	1.8653955546187
164	115	112	1.5878720437507
164	116	113	1.8822928142767
164	117	114	1.959158369102
164	118	115	1.7725709397425
164	119	116	1.8876994869594
164	120	117	1.6279273444457
165	102	100	2414.8650521714
165	103	101	2411.9260536652
165	104	102	2407.2993464565
165	105	103	2402.4390109947
165	107	104	2396.2273981045
165	108	105	2388.6387474986
165	109	106	2379.6896545744
165	110	107	2370.114478421
165	111	108	2360.5438194423
165	112	109	2350.9654128347
165	113	110	2341.6024090773
165	114	111	2334.7776501694
165	115	112	2336.1981071043
165	116	113	2346.1534130286
165	117	114	2355.5306777022
165	118	115	2365.9173562912
165	119	116	2377.9801004269
165	120	117	2389.9352306844
166	102	100	1578.4549668636
166	103	101	1579.5341517767
166	104	102	1581.414263376
166	105	103	1586.3371136133
166	107	104	1592.6286217254
166	108	105	1600.3148793355
166	109	106	1609.3790775929
166	110	107	1619.0774119077
166	111	108	1628.7711709477
166	112	109	1638.4727772688
166	113	110	1648.3431416871
166	114	111	1659.7466889061
166	115	112	1672.2956538051
166	116	113	1680.5017752489
166	117	114	1688.9584274059
166	118	115	1694.7085479386
166	119	116	1696.4847515924
166	120	117	1697.8238784345
167	103	101	3.9747482432421
167	104	102	5.9205547706802
167	105	103	7.7196932422365
167	107	104	9.759767749989
167	108	105	11.65454738585
167	109	106	13.693409157151
167	110	107	13.621773553339
167	111	108	13.565900853495
167	112	109	13.606981043895
167	113	110	13.598889184128
167	114	111	13.462780088635
167	115	112	13.084025620239
167	116	113	12.794968045698
167	117	114	12.444604082911
167	118	115	12.27240998218
167	119	116	12.196539473337
167	120	117	12.020644730503
168	104	102	1.9458065274381
168	105	103	1.7991384715564
168	107	104	2.0400745077524
168	108	105	1.894779635861
168	109	106	2.0388617713008
168	110	107	-0.071635603811592
168	111	108	-0.055872699844185
168	112	109	0.041080190399661
168	113	110	-0.0080918597662816
168	114	111	-0.13610909549388
168	115	112	-0.37875446839599
168	116	113	-0.2890575745407
168	117	114	-0.3503639627873
168	118	115	-0.17219410073063
168	119	116	-0.075870508843151
168	120	117	-0.17589474283417
169	104	102	4.1911604728786
169	105	103	4.8720965269639
169	107	104	6.4651584860393
169	108	105	7.1404074961766
169	109	106	8.7362375013429
169	110	107	1.7654384891631
169	111	108	1.8123813441616
169	112	109	2.1338473465825
169	113	110	1.9718087740116
169	114	111	1.5432464238063
169	115	112	0.973
169	116	113	0.973
169	117	114	0.973
169	118	115	1.3634816445907
169	119	116	1.6429531707562
169	120	117	1.3407691684045
170	105	103	2414.8240978135
170	107	104	2411.6681135687
170	108	105	2406.935438895
170	109	106	2401.7539033822
170	110	107	2395.0811645105
170	111	108	2387.0132088575
170	112	109	2377.578876153
170	113	110	2367.7962328403
170	114	111	2358.0027246429
170	115	112	2348.208310922
170	116	113	2338.9995719333
170	117	114	2334.0319650015
170	118	115	2340.2046584629
170	119	116	2350.7905112985
170	120	117	2361.1401282811
171	105	103	1578.4700050903
171	107	104	1579.6288660346
171	108	105	1581.782851602
171	109	106	1587.0310332403
171	110	107	1593.7895984445
171	111	108	1601.9613260366
171	112	109	1611.5170053411
171	113	110	1621.4254753077
171	114	111	1631.3449499048
171	115	112	1641.265341673
171	116	113	1651.6751783425
171	117	114	1664.2374943579
171	118	115	1675.609810099
171	119	116	1684.6836266145
171	120	117	1693.9945032271
172	107	104	4.2292426157767
172	108	105	6.1353915042804
172	109	106	8.3616570021842
172	110	107	10.418563520373
172	111	108	12.366812310969
172	112	109	13.907116115768
172	113	110	13.985286898883
172	114	111	13.987820330055
172	115	112	13.913363813516
172	116	113	13.873915352591
172	117	114	13.908738816152
172	118	115	13.996805452956
172	119	116	13.991617652401
172	120	117	13.888925071079
173	108	105	1.9061488885037
173	109	106	2.2262654979038
173	110	107	2.0569065181888
173	111	108	1.9482487905957
173	112	109	1.5403038047998
173	113	110	0.078170783114619
173	114	111	0.0025334311719067
173	115	112	-0.074456516539213
173	116	113	-0.039448460924906
173	117	114	0.03482346356148
173	118	115	0.088066636803559
173	119	116	-0.0051878005545589
173	120	117	-0.10269258132204
174	108	105	4.2457943213469
174	109	106	6.0536530005275
174	110	107	6.8816953207402
174	111	108	7.6878605237884
174	112	109	7.1918603002587
174	113	110	2.3008105683909
174	114	111	2.0461394504007
174	115	112	1.780329721598
174	116	113	1.8940776436006
174	117	114	2.1462487156574
174	118	115	2.3355890887787
174	119	116	2.0204950769698
174	120	117	1.6837678940054
175	109	106	2414.8655409296
175	110	107	2412.0834838527
175	111	108	2407.4949439961
175	112	109	2402.7722775177
175	113	110	2396.7179082003
175	114	111	2389.3685035968
175	115	112	2380.7028172436
175	116	113	2370.9869009802
175	117	114	2361.1814612881
175	118	115	2351.3880798389
175	119	116	2341.7698088895
175	120	117	2334.7695703001
176	109	106	1578.454787395
176	110	107	1579.4763442334
176	111	108	1581.2161500147
176	112	109	1585.9995605377
176	113	110	1592.1318025738
176	114	111	1599.5757369436
176	115	112	1608.3528833874
176	116	113	1618.1937680449
176	117	114	1628.125327603
176	118	115	1638.0446738219
176	119	116	1648.1288438728
176	120	117	1659.795349014
177	110	107	3.828069966125
177	111	108	5.7866292398345
177	112	109	7.5395164303311
177	113	110	9.5468448276857
177	114	111	11.290529159332
177	115	112	13.168771791569
177	116	113	13.903825301856
177	117	114	13.925065363126
177	118	115	13.888696032611
177	119	116	13.952015913378
177	120	117	13.918127564341
178	111	108	1.9585592737095
178	112	109	1.7528871904965
178	113	110	2.0073283973546
178	114	111	1.7436843316467
178	115	112	1.8782426322368
178	116	113	0.73505351028715
178	117	114	0.021240061270074
178	118	115	-0.036369330515154
178	119	116	0.063319880766795
178	120	117	-0.033888349037152
179	111	108	4.1384098388103
179	112	109	4.6983350304768
179	113	110	6.2693608943615
179	114	111	6.5322090948346
179	115	112	7.917155437987
179	116	113	4.4920532905178
179	117	114	2.1024645764927
179	118	115	1.905745845739
179	119	116	2.2468444166205
179	120	117	1.9168062362884
180	112	109	2414.873956427
180	113	110	2411.9601517438
180	114	111	2407.2863330556
180	115	112	2402.436129107
180	116	113	2396.345381471
180	117	114	2388.9531797325
180	118	115	2380.1309784877
180	119	116	2370.3627586985
180	120	117	2360.5787492685
181	112	109	1578.4516972676
181	113	110	1579.5216311403
181	114	111	1581.4274441581
181	115	112	1586.3400325682
181	116	113	1592.5091208294
181	117	114	1599.996402801
181	118	115	1608.9320772681
181	119	116	1618.8259381913
181	120	117	1628.7357918462
182	113	110	3.9549282409494
182	114	111	5.9189079660747
182	115	112	7.6575650758726
182	116	113	9.4881841101764
182	117	114	11.371412077156
182	118	115	13.516443765616
182	119	116	13.959599067254
182	120	117	13.890169489407
183	114	111	1.9639797251252
183	115	112	1.7386571097979
183	116	113	1.8306190343038
183	117	114	1.8832279669796
183	118	115	2.1450316884601
183	119	116	0.44315530163829
183	120	117	-0.069429577847476
184	114	111	4.2162160679125
184	115	112	4.7295265865966
184	116	113	5.8326075314163
184	117	114	6.9553988925841
184	118	115	8.977512736819
184	119	116	3.525601653959
184	120	117	1.7952125898503
185	115	112	2414.8746627453
185	116	113	2411.9400141494
185	117	114	2407.1603482012
185	118	115	2402.1025120807
185	119	116	2395.6343446822
185	120	117	2387.8387010127
186	115	112	1578.451437911
186	116	113	1579.5290255602
186	117	114	1581.5550494594
186	118	115	1586.6779406546
186	119	116	1593.2293031402
186	120	117	1601.1252162075
187	116	113	4.0468560271259
187	117	114	6.0858147059931
187	118	115	8.0796081643962
187	119	116	10.045355898595
187	120	117	11.990398769466
188	117	114	2.0389586788672
188	118	115	1.9937934584031
188	119	116	1.9657477341988
188	120	117	1.9450428708713
189	117	114	4.4149046653037
189	118	115	5.4307702184807
189	119	116	6.4471687152879
189	120	117	7.4682280395223
190	118	115	2414.8449117928
190	119	116	2411.7323093369
190	120	117	2406.8489543897
191	118	115	1578.4623623062
191	119	116	1579.6052936828
191	120	117	1581.8704484915
192	119	116	4.2921992871535
192	120	117	6.3890385901157
193	120	117	2.0968393029622
194	120	117	4.6709252960266

