version 2
run Default-0-20250514-20:42:12-12941
attr configname Default
attr datetime 20250514-20:42:12
attr experiment Default
attr inifile omnetpp.ini
attr iterationvars ""
attr iterationvarsf ""
attr measurement ""
attr network RSUExampleScenario
attr processid 12941
attr repetition 0
attr replication #0
attr resultdir results
attr runnumber 0
attr seedset 0
param *.playgroundSizeX 2500m
param *.playgroundSizeY 2500m
param *.playgroundSizeZ 50m
param *.annotations.draw true
param *.obstacles.obstacles "xmldoc(\"config.xml\", \"//AnalogueModel[@type='SimpleObstacleShadowing']/obstacles\")"
param *.manager.updateInterval 1s
param *.manager.host "\"localhost\""
param *.manager.port 9999
param *.manager.autoShutdown true
param *.manager.launchConfig "xmldoc(\"erlangen.launchd.xml\")"
param *.rsu[0].mobility.x 2000
param *.rsu[0].mobility.y 2000
param *.rsu[0].mobility.z 3
param *.rsu[*].applType "\"TraCIDemoRSU11p\""
param *.rsu[*].appl.headerLength "80 bit"
param *.rsu[*].appl.sendBeacons false
param *.rsu[*].appl.dataOnSch false
param *.rsu[*].appl.beaconInterval 1s
param *.rsu[*].appl.beaconUserPriority 7
param *.rsu[*].appl.dataUserPriority 5
param *.rsu[*].nic.phy80211p.antennaOffsetZ "0 m"
param *.connectionManager.sendDirect true
param *.connectionManager.maxInterfDist 2600m
param *.connectionManager.drawMaxIntfDist false
param *.**.nic.mac1609_4.useServiceChannel false
param *.**.nic.mac1609_4.txPower 20mW
param *.**.nic.mac1609_4.bitrate 6Mbps
param *.**.nic.phy80211p.minPowerLevel -110dBm
param *.**.nic.phy80211p.useNoiseFloor true
param *.**.nic.phy80211p.noiseFloor -98dBm
param *.**.nic.phy80211p.decider "xmldoc(\"config.xml\")"
param *.**.nic.phy80211p.analogueModels "xmldoc(\"config.xml\")"
param *.**.nic.phy80211p.usePropagationDelay true
param *.**.nic.phy80211p.antenna "xmldoc(\"antenna.xml\", \"/root/Antenna[@id='monopole']\")"
param *.node[*].nic.phy80211p.antennaOffsetY "0 m"
param *.node[*].nic.phy80211p.antennaOffsetZ "1.895 m"
param *.node[*].applType "\"TraCIDemo11p\""
param *.node[*].appl.headerLength "80 bit"
param *.node[*].appl.sendBeacons false
param *.node[*].appl.dataOnSch false
param *.node[*].appl.beaconInterval 1s
param *.node[*].veinsmobility.x 0
param *.node[*].veinsmobility.y 0
param *.node[*].veinsmobility.z 0
param *.node[*].veinsmobility.setHostSpeed false
param *.node[*0].veinsmobility.accidentCount 1
param *.node[*0].veinsmobility.accidentStart 73s
param *.node[*0].veinsmobility.accidentDuration 50s

scalar RSUExampleScenario.manager roiArea 0
scalar RSUExampleScenario.rsu[0].appl generatedWSMs 0
scalar RSUExampleScenario.rsu[0].appl receivedWSMs 0
scalar RSUExampleScenario.rsu[0].appl generatedBSMs 0
scalar RSUExampleScenario.rsu[0].appl receivedBSMs 0
scalar RSUExampleScenario.rsu[0].appl generatedWSAs 0
scalar RSUExampleScenario.rsu[0].appl receivedWSAs 0
scalar RSUExampleScenario.rsu[0].nic.phy80211p busyTime 0
scalar RSUExampleScenario.rsu[0].nic.mac1609_4 ReceivedUnicastPackets 0
scalar RSUExampleScenario.rsu[0].nic.mac1609_4 ReceivedBroadcasts 0
scalar RSUExampleScenario.rsu[0].nic.mac1609_4 SentPackets 0
scalar RSUExampleScenario.rsu[0].nic.mac1609_4 SentAcknowledgements 0
scalar RSUExampleScenario.rsu[0].nic.mac1609_4 RetriesExceeded 0
scalar RSUExampleScenario.rsu[0].nic.mac1609_4 SNIRLostPackets 0
scalar RSUExampleScenario.rsu[0].nic.mac1609_4 RXTXLostPackets 0
scalar RSUExampleScenario.rsu[0].nic.mac1609_4 TotalLostPackets 0
scalar RSUExampleScenario.rsu[0].nic.mac1609_4 DroppedPacketsInMac 0
scalar RSUExampleScenario.rsu[0].nic.mac1609_4 TooLittleTime 0
scalar RSUExampleScenario.rsu[0].nic.mac1609_4 TimesIntoBackoff 0
scalar RSUExampleScenario.rsu[0].nic.mac1609_4 SlotsBackoff 0
scalar RSUExampleScenario.rsu[0].nic.mac1609_4 NumInternalContention 0
scalar RSUExampleScenario.rsu[0].nic.mac1609_4 totalBusyTime 0
scalar RSUExampleScenario.rsu[0].nic.mac1609_4 retriesExceeded:count 0
attr source org_car2x_veins_modules_mac_sigRetriesExceeded
scalar RSUExampleScenario.rsu[0].nic.mac1609_4 sentAcks:count 0
attr source org_car2x_veins_modules_mac_sigSentAck
scalar RSUExampleScenario.rsu[0].nic.mac1609_4 sentPackets:count 0
attr source org_car2x_veins_modules_mac_sigSentPacket
scalar RSUExampleScenario.rsu[0].nic.mac1609_4 collisions:count 0
attr source org_car2x_veins_modules_mac_sigCollision
scalar RSUExampleScenario.rsu[0].nic.mac1609_4 channelBusy:timeavg 0
attr source org_car2x_veins_modules_mac_sigChannelBusy
scalar RSUExampleScenario.node[0].appl generatedWSMs 0
scalar RSUExampleScenario.node[0].appl receivedWSMs 0
scalar RSUExampleScenario.node[0].appl generatedBSMs 0
scalar RSUExampleScenario.node[0].appl receivedBSMs 337
scalar RSUExampleScenario.node[0].appl generatedWSAs 16777215
scalar RSUExampleScenario.node[0].appl receivedWSAs 1
scalar RSUExampleScenario.node[0].nic.phy80211p busyTime 0
scalar RSUExampleScenario.node[0].nic.mac1609_4 ReceivedUnicastPackets 0
scalar RSUExampleScenario.node[0].nic.mac1609_4 ReceivedBroadcasts 0
scalar RSUExampleScenario.node[0].nic.mac1609_4 SentPackets 0
scalar RSUExampleScenario.node[0].nic.mac1609_4 SentAcknowledgements 0
scalar RSUExampleScenario.node[0].nic.mac1609_4 RetriesExceeded 0
scalar RSUExampleScenario.node[0].nic.mac1609_4 SNIRLostPackets 0
scalar RSUExampleScenario.node[0].nic.mac1609_4 RXTXLostPackets 0
scalar RSUExampleScenario.node[0].nic.mac1609_4 TotalLostPackets 0
scalar RSUExampleScenario.node[0].nic.mac1609_4 DroppedPacketsInMac 0
scalar RSUExampleScenario.node[0].nic.mac1609_4 TooLittleTime 0
scalar RSUExampleScenario.node[0].nic.mac1609_4 TimesIntoBackoff 0
scalar RSUExampleScenario.node[0].nic.mac1609_4 SlotsBackoff 0
scalar RSUExampleScenario.node[0].nic.mac1609_4 NumInternalContention 0
scalar RSUExampleScenario.node[0].nic.mac1609_4 totalBusyTime 0
scalar RSUExampleScenario.node[0].nic.mac1609_4 retriesExceeded:count 0
attr source org_car2x_veins_modules_mac_sigRetriesExceeded
scalar RSUExampleScenario.node[0].nic.mac1609_4 sentAcks:count 0
attr source org_car2x_veins_modules_mac_sigSentAck
scalar RSUExampleScenario.node[0].nic.mac1609_4 sentPackets:count 0
attr source org_car2x_veins_modules_mac_sigSentPacket
scalar RSUExampleScenario.node[0].nic.mac1609_4 collisions:count 0
attr source org_car2x_veins_modules_mac_sigCollision
scalar RSUExampleScenario.node[0].nic.mac1609_4 channelBusy:timeavg 0
attr source org_car2x_veins_modules_mac_sigChannelBusy
scalar RSUExampleScenario.node[0].veinsmobility startTime 1
scalar RSUExampleScenario.node[0].veinsmobility totalTime 116
scalar RSUExampleScenario.node[0].veinsmobility stopTime 117
scalar RSUExampleScenario.node[0].veinsmobility minSpeed 0
scalar RSUExampleScenario.node[0].veinsmobility maxSpeed 13.999815066161
scalar RSUExampleScenario.node[0].veinsmobility totalDistance 941.77959651358
scalar RSUExampleScenario.node[0].veinsmobility totalCO2Emission 222.93198852533
scalar RSUExampleScenario.node[1].appl generatedWSMs 0
scalar RSUExampleScenario.node[1].appl receivedWSMs 128
scalar RSUExampleScenario.node[1].appl generatedBSMs 0
scalar RSUExampleScenario.node[1].appl receivedBSMs 256
scalar RSUExampleScenario.node[1].appl generatedWSAs 0
scalar RSUExampleScenario.node[1].appl receivedWSAs 128
scalar RSUExampleScenario.node[1].nic.phy80211p busyTime 0
scalar RSUExampleScenario.node[1].nic.mac1609_4 ReceivedUnicastPackets 0
scalar RSUExampleScenario.node[1].nic.mac1609_4 ReceivedBroadcasts 0
scalar RSUExampleScenario.node[1].nic.mac1609_4 SentPackets 0
scalar RSUExampleScenario.node[1].nic.mac1609_4 SentAcknowledgements 0
scalar RSUExampleScenario.node[1].nic.mac1609_4 RetriesExceeded 0
scalar RSUExampleScenario.node[1].nic.mac1609_4 SNIRLostPackets 0
scalar RSUExampleScenario.node[1].nic.mac1609_4 RXTXLostPackets 0
scalar RSUExampleScenario.node[1].nic.mac1609_4 TotalLostPackets 0
scalar RSUExampleScenario.node[1].nic.mac1609_4 DroppedPacketsInMac 0
scalar RSUExampleScenario.node[1].nic.mac1609_4 TooLittleTime 0
scalar RSUExampleScenario.node[1].nic.mac1609_4 TimesIntoBackoff 0
scalar RSUExampleScenario.node[1].nic.mac1609_4 SlotsBackoff 0
scalar RSUExampleScenario.node[1].nic.mac1609_4 NumInternalContention 0
scalar RSUExampleScenario.node[1].nic.mac1609_4 totalBusyTime 0
scalar RSUExampleScenario.node[1].nic.mac1609_4 retriesExceeded:count 0
attr source org_car2x_veins_modules_mac_sigRetriesExceeded
scalar RSUExampleScenario.node[1].nic.mac1609_4 sentAcks:count 0
attr source org_car2x_veins_modules_mac_sigSentAck
scalar RSUExampleScenario.node[1].nic.mac1609_4 sentPackets:count 0
attr source org_car2x_veins_modules_mac_sigSentPacket
scalar RSUExampleScenario.node[1].nic.mac1609_4 collisions:count 0
attr source org_car2x_veins_modules_mac_sigCollision
scalar RSUExampleScenario.node[1].nic.mac1609_4 channelBusy:timeavg 0
attr source org_car2x_veins_modules_mac_sigChannelBusy
scalar RSUExampleScenario.node[1].veinsmobility startTime 4
scalar RSUExampleScenario.node[1].veinsmobility totalTime 113
scalar RSUExampleScenario.node[1].veinsmobility stopTime 117
scalar RSUExampleScenario.node[1].veinsmobility minSpeed 0
scalar RSUExampleScenario.node[1].veinsmobility maxSpeed 13.998578815588
scalar RSUExampleScenario.node[1].veinsmobility totalDistance 936.53988705229
scalar RSUExampleScenario.node[1].veinsmobility totalCO2Emission 217.57767089274
scalar RSUExampleScenario.node[2].appl generatedWSMs 0
scalar RSUExampleScenario.node[2].appl receivedWSMs 761102784
scalar RSUExampleScenario.node[2].appl generatedBSMs 0
scalar RSUExampleScenario.node[2].appl receivedBSMs 6
scalar RSUExampleScenario.node[2].appl generatedWSAs 761101712
scalar RSUExampleScenario.node[2].appl receivedWSAs 0
scalar RSUExampleScenario.node[2].nic.phy80211p busyTime 0
scalar RSUExampleScenario.node[2].nic.mac1609_4 ReceivedUnicastPackets 0
scalar RSUExampleScenario.node[2].nic.mac1609_4 ReceivedBroadcasts 0
scalar RSUExampleScenario.node[2].nic.mac1609_4 SentPackets 0
scalar RSUExampleScenario.node[2].nic.mac1609_4 SentAcknowledgements 0
scalar RSUExampleScenario.node[2].nic.mac1609_4 RetriesExceeded 0
scalar RSUExampleScenario.node[2].nic.mac1609_4 SNIRLostPackets 0
scalar RSUExampleScenario.node[2].nic.mac1609_4 RXTXLostPackets 0
scalar RSUExampleScenario.node[2].nic.mac1609_4 TotalLostPackets 0
scalar RSUExampleScenario.node[2].nic.mac1609_4 DroppedPacketsInMac 0
scalar RSUExampleScenario.node[2].nic.mac1609_4 TooLittleTime 0
scalar RSUExampleScenario.node[2].nic.mac1609_4 TimesIntoBackoff 0
scalar RSUExampleScenario.node[2].nic.mac1609_4 SlotsBackoff 0
scalar RSUExampleScenario.node[2].nic.mac1609_4 NumInternalContention 0
scalar RSUExampleScenario.node[2].nic.mac1609_4 totalBusyTime 0
scalar RSUExampleScenario.node[2].nic.mac1609_4 retriesExceeded:count 0
attr source org_car2x_veins_modules_mac_sigRetriesExceeded
scalar RSUExampleScenario.node[2].nic.mac1609_4 sentAcks:count 0
attr source org_car2x_veins_modules_mac_sigSentAck
scalar RSUExampleScenario.node[2].nic.mac1609_4 sentPackets:count 0
attr source org_car2x_veins_modules_mac_sigSentPacket
scalar RSUExampleScenario.node[2].nic.mac1609_4 collisions:count 0
attr source org_car2x_veins_modules_mac_sigCollision
scalar RSUExampleScenario.node[2].nic.mac1609_4 channelBusy:timeavg 0
attr source org_car2x_veins_modules_mac_sigChannelBusy
scalar RSUExampleScenario.node[2].veinsmobility startTime 7
scalar RSUExampleScenario.node[2].veinsmobility totalTime 110
scalar RSUExampleScenario.node[2].veinsmobility stopTime 117
scalar RSUExampleScenario.node[2].veinsmobility minSpeed 0
scalar RSUExampleScenario.node[2].veinsmobility maxSpeed 13.997537077854
scalar RSUExampleScenario.node[2].veinsmobility totalDistance 931.77902405463
scalar RSUExampleScenario.node[2].veinsmobility totalCO2Emission 214.04784284699
scalar RSUExampleScenario.node[3].appl generatedWSMs 0
scalar RSUExampleScenario.node[3].appl receivedWSMs 4294967295
scalar RSUExampleScenario.node[3].appl generatedBSMs 0
scalar RSUExampleScenario.node[3].appl receivedBSMs 0
scalar RSUExampleScenario.node[3].appl generatedWSAs 4294967295
scalar RSUExampleScenario.node[3].appl receivedWSAs 0
scalar RSUExampleScenario.node[3].nic.phy80211p busyTime 0
scalar RSUExampleScenario.node[3].nic.mac1609_4 ReceivedUnicastPackets 0
scalar RSUExampleScenario.node[3].nic.mac1609_4 ReceivedBroadcasts 0
scalar RSUExampleScenario.node[3].nic.mac1609_4 SentPackets 0
scalar RSUExampleScenario.node[3].nic.mac1609_4 SentAcknowledgements 0
scalar RSUExampleScenario.node[3].nic.mac1609_4 RetriesExceeded 0
scalar RSUExampleScenario.node[3].nic.mac1609_4 SNIRLostPackets 0
scalar RSUExampleScenario.node[3].nic.mac1609_4 RXTXLostPackets 0
scalar RSUExampleScenario.node[3].nic.mac1609_4 TotalLostPackets 0
scalar RSUExampleScenario.node[3].nic.mac1609_4 DroppedPacketsInMac 0
scalar RSUExampleScenario.node[3].nic.mac1609_4 TooLittleTime 0
scalar RSUExampleScenario.node[3].nic.mac1609_4 TimesIntoBackoff 0
scalar RSUExampleScenario.node[3].nic.mac1609_4 SlotsBackoff 0
scalar RSUExampleScenario.node[3].nic.mac1609_4 NumInternalContention 0
scalar RSUExampleScenario.node[3].nic.mac1609_4 totalBusyTime 0
scalar RSUExampleScenario.node[3].nic.mac1609_4 retriesExceeded:count 0
attr source org_car2x_veins_modules_mac_sigRetriesExceeded
scalar RSUExampleScenario.node[3].nic.mac1609_4 sentAcks:count 0
attr source org_car2x_veins_modules_mac_sigSentAck
scalar RSUExampleScenario.node[3].nic.mac1609_4 sentPackets:count 0
attr source org_car2x_veins_modules_mac_sigSentPacket
scalar RSUExampleScenario.node[3].nic.mac1609_4 collisions:count 0
attr source org_car2x_veins_modules_mac_sigCollision
scalar RSUExampleScenario.node[3].nic.mac1609_4 channelBusy:timeavg 0
attr source org_car2x_veins_modules_mac_sigChannelBusy
scalar RSUExampleScenario.node[3].veinsmobility startTime 10
scalar RSUExampleScenario.node[3].veinsmobility totalTime 107
scalar RSUExampleScenario.node[3].veinsmobility stopTime 117
scalar RSUExampleScenario.node[3].veinsmobility minSpeed 0
scalar RSUExampleScenario.node[3].veinsmobility maxSpeed 13.999869057706
scalar RSUExampleScenario.node[3].veinsmobility totalDistance 926.95890801813
scalar RSUExampleScenario.node[3].veinsmobility totalCO2Emission 211.60985056743
scalar RSUExampleScenario.node[4].appl generatedWSMs 16777215
scalar RSUExampleScenario.node[4].appl receivedWSMs 16777215
scalar RSUExampleScenario.node[4].appl generatedBSMs 16777215
scalar RSUExampleScenario.node[4].appl receivedBSMs 16777215
scalar RSUExampleScenario.node[4].appl generatedWSAs 16777215
scalar RSUExampleScenario.node[4].appl receivedWSAs 16777215
scalar RSUExampleScenario.node[4].nic.phy80211p busyTime 0
scalar RSUExampleScenario.node[4].nic.mac1609_4 ReceivedUnicastPackets 0
scalar RSUExampleScenario.node[4].nic.mac1609_4 ReceivedBroadcasts 0
scalar RSUExampleScenario.node[4].nic.mac1609_4 SentPackets 0
scalar RSUExampleScenario.node[4].nic.mac1609_4 SentAcknowledgements 0
scalar RSUExampleScenario.node[4].nic.mac1609_4 RetriesExceeded 0
scalar RSUExampleScenario.node[4].nic.mac1609_4 SNIRLostPackets 0
scalar RSUExampleScenario.node[4].nic.mac1609_4 RXTXLostPackets 0
scalar RSUExampleScenario.node[4].nic.mac1609_4 TotalLostPackets 0
scalar RSUExampleScenario.node[4].nic.mac1609_4 DroppedPacketsInMac 0
scalar RSUExampleScenario.node[4].nic.mac1609_4 TooLittleTime 0
scalar RSUExampleScenario.node[4].nic.mac1609_4 TimesIntoBackoff 0
scalar RSUExampleScenario.node[4].nic.mac1609_4 SlotsBackoff 0
scalar RSUExampleScenario.node[4].nic.mac1609_4 NumInternalContention 0
scalar RSUExampleScenario.node[4].nic.mac1609_4 totalBusyTime 0
scalar RSUExampleScenario.node[4].nic.mac1609_4 retriesExceeded:count 0
attr source org_car2x_veins_modules_mac_sigRetriesExceeded
scalar RSUExampleScenario.node[4].nic.mac1609_4 sentAcks:count 0
attr source org_car2x_veins_modules_mac_sigSentAck
scalar RSUExampleScenario.node[4].nic.mac1609_4 sentPackets:count 0
attr source org_car2x_veins_modules_mac_sigSentPacket
scalar RSUExampleScenario.node[4].nic.mac1609_4 collisions:count 0
attr source org_car2x_veins_modules_mac_sigCollision
scalar RSUExampleScenario.node[4].nic.mac1609_4 channelBusy:timeavg 0
attr source org_car2x_veins_modules_mac_sigChannelBusy
scalar RSUExampleScenario.node[4].veinsmobility startTime 13
scalar RSUExampleScenario.node[4].veinsmobility totalTime 104
scalar RSUExampleScenario.node[4].veinsmobility stopTime 117
scalar RSUExampleScenario.node[4].veinsmobility minSpeed 0
scalar RSUExampleScenario.node[4].veinsmobility maxSpeed 13.998410794288
scalar RSUExampleScenario.node[4].veinsmobility totalDistance 921.9795190032
scalar RSUExampleScenario.node[4].veinsmobility totalCO2Emission 203.8310623828
scalar RSUExampleScenario.node[5].appl generatedWSMs 16777215
scalar RSUExampleScenario.node[5].appl receivedWSMs 16777215
scalar RSUExampleScenario.node[5].appl generatedBSMs 16777215
scalar RSUExampleScenario.node[5].appl receivedBSMs 16777215
scalar RSUExampleScenario.node[5].appl generatedWSAs 16777215
scalar RSUExampleScenario.node[5].appl receivedWSAs 16777215
scalar RSUExampleScenario.node[5].nic.phy80211p busyTime 0
scalar RSUExampleScenario.node[5].nic.mac1609_4 ReceivedUnicastPackets 0
scalar RSUExampleScenario.node[5].nic.mac1609_4 ReceivedBroadcasts 0
scalar RSUExampleScenario.node[5].nic.mac1609_4 SentPackets 0
scalar RSUExampleScenario.node[5].nic.mac1609_4 SentAcknowledgements 0
scalar RSUExampleScenario.node[5].nic.mac1609_4 RetriesExceeded 0
scalar RSUExampleScenario.node[5].nic.mac1609_4 SNIRLostPackets 0
scalar RSUExampleScenario.node[5].nic.mac1609_4 RXTXLostPackets 0
scalar RSUExampleScenario.node[5].nic.mac1609_4 TotalLostPackets 0
scalar RSUExampleScenario.node[5].nic.mac1609_4 DroppedPacketsInMac 0
scalar RSUExampleScenario.node[5].nic.mac1609_4 TooLittleTime 0
scalar RSUExampleScenario.node[5].nic.mac1609_4 TimesIntoBackoff 0
scalar RSUExampleScenario.node[5].nic.mac1609_4 SlotsBackoff 0
scalar RSUExampleScenario.node[5].nic.mac1609_4 NumInternalContention 0
scalar RSUExampleScenario.node[5].nic.mac1609_4 totalBusyTime 0
scalar RSUExampleScenario.node[5].nic.mac1609_4 retriesExceeded:count 0
attr source org_car2x_veins_modules_mac_sigRetriesExceeded
scalar RSUExampleScenario.node[5].nic.mac1609_4 sentAcks:count 0
attr source org_car2x_veins_modules_mac_sigSentAck
scalar RSUExampleScenario.node[5].nic.mac1609_4 sentPackets:count 0
attr source org_car2x_veins_modules_mac_sigSentPacket
scalar RSUExampleScenario.node[5].nic.mac1609_4 collisions:count 0
attr source org_car2x_veins_modules_mac_sigCollision
scalar RSUExampleScenario.node[5].nic.mac1609_4 channelBusy:timeavg 0
attr source org_car2x_veins_modules_mac_sigChannelBusy
scalar RSUExampleScenario.node[5].veinsmobility startTime 16
scalar RSUExampleScenario.node[5].veinsmobility totalTime 101
scalar RSUExampleScenario.node[5].veinsmobility stopTime 117
scalar RSUExampleScenario.node[5].veinsmobility minSpeed 0
scalar RSUExampleScenario.node[5].veinsmobility maxSpeed 13.998108282317
scalar RSUExampleScenario.node[5].veinsmobility totalDistance 916.78085952932
scalar RSUExampleScenario.node[5].veinsmobility totalCO2Emission 204.22054799582
scalar RSUExampleScenario.node[6].appl generatedWSMs 0
scalar RSUExampleScenario.node[6].appl receivedWSMs 0
scalar RSUExampleScenario.node[6].appl generatedBSMs 0
scalar RSUExampleScenario.node[6].appl receivedBSMs 0
scalar RSUExampleScenario.node[6].appl generatedWSAs 0
scalar RSUExampleScenario.node[6].appl receivedWSAs 0
scalar RSUExampleScenario.node[6].nic.phy80211p busyTime 0
scalar RSUExampleScenario.node[6].nic.mac1609_4 ReceivedUnicastPackets 0
scalar RSUExampleScenario.node[6].nic.mac1609_4 ReceivedBroadcasts 0
scalar RSUExampleScenario.node[6].nic.mac1609_4 SentPackets 0
scalar RSUExampleScenario.node[6].nic.mac1609_4 SentAcknowledgements 0
scalar RSUExampleScenario.node[6].nic.mac1609_4 RetriesExceeded 0
scalar RSUExampleScenario.node[6].nic.mac1609_4 SNIRLostPackets 0
scalar RSUExampleScenario.node[6].nic.mac1609_4 RXTXLostPackets 0
scalar RSUExampleScenario.node[6].nic.mac1609_4 TotalLostPackets 0
scalar RSUExampleScenario.node[6].nic.mac1609_4 DroppedPacketsInMac 0
scalar RSUExampleScenario.node[6].nic.mac1609_4 TooLittleTime 0
scalar RSUExampleScenario.node[6].nic.mac1609_4 TimesIntoBackoff 0
scalar RSUExampleScenario.node[6].nic.mac1609_4 SlotsBackoff 0
scalar RSUExampleScenario.node[6].nic.mac1609_4 NumInternalContention 0
scalar RSUExampleScenario.node[6].nic.mac1609_4 totalBusyTime 0
scalar RSUExampleScenario.node[6].nic.mac1609_4 retriesExceeded:count 0
attr source org_car2x_veins_modules_mac_sigRetriesExceeded
scalar RSUExampleScenario.node[6].nic.mac1609_4 sentAcks:count 0
attr source org_car2x_veins_modules_mac_sigSentAck
scalar RSUExampleScenario.node[6].nic.mac1609_4 sentPackets:count 0
attr source org_car2x_veins_modules_mac_sigSentPacket
scalar RSUExampleScenario.node[6].nic.mac1609_4 collisions:count 0
attr source org_car2x_veins_modules_mac_sigCollision
scalar RSUExampleScenario.node[6].nic.mac1609_4 channelBusy:timeavg 0
attr source org_car2x_veins_modules_mac_sigChannelBusy
scalar RSUExampleScenario.node[6].veinsmobility startTime 19
scalar RSUExampleScenario.node[6].veinsmobility totalTime 98
scalar RSUExampleScenario.node[6].veinsmobility stopTime 117
scalar RSUExampleScenario.node[6].veinsmobility minSpeed 0
scalar RSUExampleScenario.node[6].veinsmobility maxSpeed 13.993053698211
scalar RSUExampleScenario.node[6].veinsmobility totalDistance 913.02458718768
scalar RSUExampleScenario.node[6].veinsmobility totalCO2Emission 200.37657788696
scalar RSUExampleScenario.node[7].appl generatedWSMs 0
scalar RSUExampleScenario.node[7].appl receivedWSMs 0
scalar RSUExampleScenario.node[7].appl generatedBSMs 0
scalar RSUExampleScenario.node[7].appl receivedBSMs 0
scalar RSUExampleScenario.node[7].appl generatedWSAs 0
scalar RSUExampleScenario.node[7].appl receivedWSAs 0
scalar RSUExampleScenario.node[7].nic.phy80211p busyTime 0
scalar RSUExampleScenario.node[7].nic.mac1609_4 ReceivedUnicastPackets 0
scalar RSUExampleScenario.node[7].nic.mac1609_4 ReceivedBroadcasts 0
scalar RSUExampleScenario.node[7].nic.mac1609_4 SentPackets 0
scalar RSUExampleScenario.node[7].nic.mac1609_4 SentAcknowledgements 0
scalar RSUExampleScenario.node[7].nic.mac1609_4 RetriesExceeded 0
scalar RSUExampleScenario.node[7].nic.mac1609_4 SNIRLostPackets 0
scalar RSUExampleScenario.node[7].nic.mac1609_4 RXTXLostPackets 0
scalar RSUExampleScenario.node[7].nic.mac1609_4 TotalLostPackets 0
scalar RSUExampleScenario.node[7].nic.mac1609_4 DroppedPacketsInMac 0
scalar RSUExampleScenario.node[7].nic.mac1609_4 TooLittleTime 0
scalar RSUExampleScenario.node[7].nic.mac1609_4 TimesIntoBackoff 0
scalar RSUExampleScenario.node[7].nic.mac1609_4 SlotsBackoff 0
scalar RSUExampleScenario.node[7].nic.mac1609_4 NumInternalContention 0
scalar RSUExampleScenario.node[7].nic.mac1609_4 totalBusyTime 0
scalar RSUExampleScenario.node[7].nic.mac1609_4 retriesExceeded:count 0
attr source org_car2x_veins_modules_mac_sigRetriesExceeded
scalar RSUExampleScenario.node[7].nic.mac1609_4 sentAcks:count 0
attr source org_car2x_veins_modules_mac_sigSentAck
scalar RSUExampleScenario.node[7].nic.mac1609_4 sentPackets:count 0
attr source org_car2x_veins_modules_mac_sigSentPacket
scalar RSUExampleScenario.node[7].nic.mac1609_4 collisions:count 0
attr source org_car2x_veins_modules_mac_sigCollision
scalar RSUExampleScenario.node[7].nic.mac1609_4 channelBusy:timeavg 0
attr source org_car2x_veins_modules_mac_sigChannelBusy
scalar RSUExampleScenario.node[7].veinsmobility startTime 22
scalar RSUExampleScenario.node[7].veinsmobility totalTime 95
scalar RSUExampleScenario.node[7].veinsmobility stopTime 117
scalar RSUExampleScenario.node[7].veinsmobility minSpeed 0
scalar RSUExampleScenario.node[7].veinsmobility maxSpeed 13.993188831017
scalar RSUExampleScenario.node[7].veinsmobility totalDistance 907.9116007712
scalar RSUExampleScenario.node[7].veinsmobility totalCO2Emission 189.50325633217
scalar RSUExampleScenario.node[8].appl generatedWSMs 0
scalar RSUExampleScenario.node[8].appl receivedWSMs 48
scalar RSUExampleScenario.node[8].appl generatedBSMs 0
scalar RSUExampleScenario.node[8].appl receivedBSMs 761458176
scalar RSUExampleScenario.node[8].appl generatedWSAs 288
scalar RSUExampleScenario.node[8].appl receivedWSAs 0
scalar RSUExampleScenario.node[8].nic.phy80211p busyTime 0
scalar RSUExampleScenario.node[8].nic.mac1609_4 ReceivedUnicastPackets 0
scalar RSUExampleScenario.node[8].nic.mac1609_4 ReceivedBroadcasts 0
scalar RSUExampleScenario.node[8].nic.mac1609_4 SentPackets 0
scalar RSUExampleScenario.node[8].nic.mac1609_4 SentAcknowledgements 0
scalar RSUExampleScenario.node[8].nic.mac1609_4 RetriesExceeded 0
scalar RSUExampleScenario.node[8].nic.mac1609_4 SNIRLostPackets 0
scalar RSUExampleScenario.node[8].nic.mac1609_4 RXTXLostPackets 0
scalar RSUExampleScenario.node[8].nic.mac1609_4 TotalLostPackets 0
scalar RSUExampleScenario.node[8].nic.mac1609_4 DroppedPacketsInMac 0
scalar RSUExampleScenario.node[8].nic.mac1609_4 TooLittleTime 0
scalar RSUExampleScenario.node[8].nic.mac1609_4 TimesIntoBackoff 0
scalar RSUExampleScenario.node[8].nic.mac1609_4 SlotsBackoff 0
scalar RSUExampleScenario.node[8].nic.mac1609_4 NumInternalContention 0
scalar RSUExampleScenario.node[8].nic.mac1609_4 totalBusyTime 0
scalar RSUExampleScenario.node[8].nic.mac1609_4 retriesExceeded:count 0
attr source org_car2x_veins_modules_mac_sigRetriesExceeded
scalar RSUExampleScenario.node[8].nic.mac1609_4 sentAcks:count 0
attr source org_car2x_veins_modules_mac_sigSentAck
scalar RSUExampleScenario.node[8].nic.mac1609_4 sentPackets:count 0
attr source org_car2x_veins_modules_mac_sigSentPacket
scalar RSUExampleScenario.node[8].nic.mac1609_4 collisions:count 0
attr source org_car2x_veins_modules_mac_sigCollision
scalar RSUExampleScenario.node[8].nic.mac1609_4 channelBusy:timeavg 0
attr source org_car2x_veins_modules_mac_sigChannelBusy
scalar RSUExampleScenario.node[8].veinsmobility startTime 25
scalar RSUExampleScenario.node[8].veinsmobility totalTime 92
scalar RSUExampleScenario.node[8].veinsmobility stopTime 117
scalar RSUExampleScenario.node[8].veinsmobility minSpeed 0
scalar RSUExampleScenario.node[8].veinsmobility maxSpeed 13.993341588627
scalar RSUExampleScenario.node[8].veinsmobility totalDistance 902.72432772
scalar RSUExampleScenario.node[8].veinsmobility totalCO2Emission 190.06756821981
scalar RSUExampleScenario.node[9].appl generatedWSMs 0
scalar RSUExampleScenario.node[9].appl receivedWSMs 0
scalar RSUExampleScenario.node[9].appl generatedBSMs 0
scalar RSUExampleScenario.node[9].appl receivedBSMs 0
scalar RSUExampleScenario.node[9].appl generatedWSAs 0
scalar RSUExampleScenario.node[9].appl receivedWSAs 0
scalar RSUExampleScenario.node[9].nic.phy80211p busyTime 0
scalar RSUExampleScenario.node[9].nic.mac1609_4 ReceivedUnicastPackets 0
scalar RSUExampleScenario.node[9].nic.mac1609_4 ReceivedBroadcasts 0
scalar RSUExampleScenario.node[9].nic.mac1609_4 SentPackets 0
scalar RSUExampleScenario.node[9].nic.mac1609_4 SentAcknowledgements 0
scalar RSUExampleScenario.node[9].nic.mac1609_4 RetriesExceeded 0
scalar RSUExampleScenario.node[9].nic.mac1609_4 SNIRLostPackets 0
scalar RSUExampleScenario.node[9].nic.mac1609_4 RXTXLostPackets 0
scalar RSUExampleScenario.node[9].nic.mac1609_4 TotalLostPackets 0
scalar RSUExampleScenario.node[9].nic.mac1609_4 DroppedPacketsInMac 0
scalar RSUExampleScenario.node[9].nic.mac1609_4 TooLittleTime 0
scalar RSUExampleScenario.node[9].nic.mac1609_4 TimesIntoBackoff 0
scalar RSUExampleScenario.node[9].nic.mac1609_4 SlotsBackoff 0
scalar RSUExampleScenario.node[9].nic.mac1609_4 NumInternalContention 0
scalar RSUExampleScenario.node[9].nic.mac1609_4 totalBusyTime 0
scalar RSUExampleScenario.node[9].nic.mac1609_4 retriesExceeded:count 0
attr source org_car2x_veins_modules_mac_sigRetriesExceeded
scalar RSUExampleScenario.node[9].nic.mac1609_4 sentAcks:count 0
attr source org_car2x_veins_modules_mac_sigSentAck
scalar RSUExampleScenario.node[9].nic.mac1609_4 sentPackets:count 0
attr source org_car2x_veins_modules_mac_sigSentPacket
scalar RSUExampleScenario.node[9].nic.mac1609_4 collisions:count 0
attr source org_car2x_veins_modules_mac_sigCollision
scalar RSUExampleScenario.node[9].nic.mac1609_4 channelBusy:timeavg 0
attr source org_car2x_veins_modules_mac_sigChannelBusy
scalar RSUExampleScenario.node[9].veinsmobility startTime 28
scalar RSUExampleScenario.node[9].veinsmobility totalTime 89
scalar RSUExampleScenario.node[9].veinsmobility stopTime 117
scalar RSUExampleScenario.node[9].veinsmobility minSpeed 1.2291380735483e-05
scalar RSUExampleScenario.node[9].veinsmobility maxSpeed 13.97994910137
scalar RSUExampleScenario.node[9].veinsmobility totalDistance 896.55858515807
scalar RSUExampleScenario.node[9].veinsmobility totalCO2Emission 188.71458438629
scalar RSUExampleScenario.node[10].appl generatedWSMs 0
scalar RSUExampleScenario.node[10].appl receivedWSMs 746141920
scalar RSUExampleScenario.node[10].appl generatedBSMs 0
scalar RSUExampleScenario.node[10].appl receivedBSMs 0
scalar RSUExampleScenario.node[10].appl generatedWSAs 0
scalar RSUExampleScenario.node[10].appl receivedWSAs 0
scalar RSUExampleScenario.node[10].nic.phy80211p busyTime 0
scalar RSUExampleScenario.node[10].nic.mac1609_4 ReceivedUnicastPackets 0
scalar RSUExampleScenario.node[10].nic.mac1609_4 ReceivedBroadcasts 0
scalar RSUExampleScenario.node[10].nic.mac1609_4 SentPackets 0
scalar RSUExampleScenario.node[10].nic.mac1609_4 SentAcknowledgements 0
scalar RSUExampleScenario.node[10].nic.mac1609_4 RetriesExceeded 0
scalar RSUExampleScenario.node[10].nic.mac1609_4 SNIRLostPackets 0
scalar RSUExampleScenario.node[10].nic.mac1609_4 RXTXLostPackets 0
scalar RSUExampleScenario.node[10].nic.mac1609_4 TotalLostPackets 0
scalar RSUExampleScenario.node[10].nic.mac1609_4 DroppedPacketsInMac 0
scalar RSUExampleScenario.node[10].nic.mac1609_4 TooLittleTime 0
scalar RSUExampleScenario.node[10].nic.mac1609_4 TimesIntoBackoff 0
scalar RSUExampleScenario.node[10].nic.mac1609_4 SlotsBackoff 0
scalar RSUExampleScenario.node[10].nic.mac1609_4 NumInternalContention 0
scalar RSUExampleScenario.node[10].nic.mac1609_4 totalBusyTime 0
scalar RSUExampleScenario.node[10].nic.mac1609_4 retriesExceeded:count 0
attr source org_car2x_veins_modules_mac_sigRetriesExceeded
scalar RSUExampleScenario.node[10].nic.mac1609_4 sentAcks:count 0
attr source org_car2x_veins_modules_mac_sigSentAck
scalar RSUExampleScenario.node[10].nic.mac1609_4 sentPackets:count 0
attr source org_car2x_veins_modules_mac_sigSentPacket
scalar RSUExampleScenario.node[10].nic.mac1609_4 collisions:count 0
attr source org_car2x_veins_modules_mac_sigCollision
scalar RSUExampleScenario.node[10].nic.mac1609_4 channelBusy:timeavg 0
attr source org_car2x_veins_modules_mac_sigChannelBusy
scalar RSUExampleScenario.node[10].veinsmobility startTime 31
scalar RSUExampleScenario.node[10].veinsmobility totalTime 86
scalar RSUExampleScenario.node[10].veinsmobility stopTime 117
scalar RSUExampleScenario.node[10].veinsmobility minSpeed 0
scalar RSUExampleScenario.node[10].veinsmobility maxSpeed 13.991812187003
scalar RSUExampleScenario.node[10].veinsmobility totalDistance 885.56135511697
scalar RSUExampleScenario.node[10].veinsmobility totalCO2Emission 186.07129898907
scalar RSUExampleScenario.node[11].appl generatedWSMs 1075614378
scalar RSUExampleScenario.node[11].appl receivedWSMs 0
scalar RSUExampleScenario.node[11].appl generatedBSMs 0
scalar RSUExampleScenario.node[11].appl receivedBSMs 2863311531
scalar RSUExampleScenario.node[11].appl generatedWSAs 3
scalar RSUExampleScenario.node[11].appl receivedWSAs 1073831936
scalar RSUExampleScenario.node[11].nic.phy80211p busyTime 0
scalar RSUExampleScenario.node[11].nic.mac1609_4 ReceivedUnicastPackets 0
scalar RSUExampleScenario.node[11].nic.mac1609_4 ReceivedBroadcasts 0
scalar RSUExampleScenario.node[11].nic.mac1609_4 SentPackets 0
scalar RSUExampleScenario.node[11].nic.mac1609_4 SentAcknowledgements 0
scalar RSUExampleScenario.node[11].nic.mac1609_4 RetriesExceeded 0
scalar RSUExampleScenario.node[11].nic.mac1609_4 SNIRLostPackets 0
scalar RSUExampleScenario.node[11].nic.mac1609_4 RXTXLostPackets 0
scalar RSUExampleScenario.node[11].nic.mac1609_4 TotalLostPackets 0
scalar RSUExampleScenario.node[11].nic.mac1609_4 DroppedPacketsInMac 0
scalar RSUExampleScenario.node[11].nic.mac1609_4 TooLittleTime 0
scalar RSUExampleScenario.node[11].nic.mac1609_4 TimesIntoBackoff 0
scalar RSUExampleScenario.node[11].nic.mac1609_4 SlotsBackoff 0
scalar RSUExampleScenario.node[11].nic.mac1609_4 NumInternalContention 0
scalar RSUExampleScenario.node[11].nic.mac1609_4 totalBusyTime 0
scalar RSUExampleScenario.node[11].nic.mac1609_4 retriesExceeded:count 0
attr source org_car2x_veins_modules_mac_sigRetriesExceeded
scalar RSUExampleScenario.node[11].nic.mac1609_4 sentAcks:count 0
attr source org_car2x_veins_modules_mac_sigSentAck
scalar RSUExampleScenario.node[11].nic.mac1609_4 sentPackets:count 0
attr source org_car2x_veins_modules_mac_sigSentPacket
scalar RSUExampleScenario.node[11].nic.mac1609_4 collisions:count 0
attr source org_car2x_veins_modules_mac_sigCollision
scalar RSUExampleScenario.node[11].nic.mac1609_4 channelBusy:timeavg 0
attr source org_car2x_veins_modules_mac_sigChannelBusy
scalar RSUExampleScenario.node[11].veinsmobility startTime 34
scalar RSUExampleScenario.node[11].veinsmobility totalTime 83
scalar RSUExampleScenario.node[11].veinsmobility stopTime 117
scalar RSUExampleScenario.node[11].veinsmobility minSpeed 1.1790172075753e-05
scalar RSUExampleScenario.node[11].veinsmobility maxSpeed 13.999926172604
scalar RSUExampleScenario.node[11].veinsmobility totalDistance 881.5537335749
scalar RSUExampleScenario.node[11].veinsmobility totalCO2Emission 181.51379377775
scalar RSUExampleScenario.node[12].appl generatedWSMs 0
scalar RSUExampleScenario.node[12].appl receivedWSMs 0
scalar RSUExampleScenario.node[12].appl generatedBSMs 0
scalar RSUExampleScenario.node[12].appl receivedBSMs 0
scalar RSUExampleScenario.node[12].appl generatedWSAs 0
scalar RSUExampleScenario.node[12].appl receivedWSAs 0
scalar RSUExampleScenario.node[12].nic.phy80211p busyTime 0
scalar RSUExampleScenario.node[12].nic.mac1609_4 ReceivedUnicastPackets 0
scalar RSUExampleScenario.node[12].nic.mac1609_4 ReceivedBroadcasts 0
scalar RSUExampleScenario.node[12].nic.mac1609_4 SentPackets 0
scalar RSUExampleScenario.node[12].nic.mac1609_4 SentAcknowledgements 0
scalar RSUExampleScenario.node[12].nic.mac1609_4 RetriesExceeded 0
scalar RSUExampleScenario.node[12].nic.mac1609_4 SNIRLostPackets 0
scalar RSUExampleScenario.node[12].nic.mac1609_4 RXTXLostPackets 0
scalar RSUExampleScenario.node[12].nic.mac1609_4 TotalLostPackets 0
scalar RSUExampleScenario.node[12].nic.mac1609_4 DroppedPacketsInMac 0
scalar RSUExampleScenario.node[12].nic.mac1609_4 TooLittleTime 0
scalar RSUExampleScenario.node[12].nic.mac1609_4 TimesIntoBackoff 0
scalar RSUExampleScenario.node[12].nic.mac1609_4 SlotsBackoff 0
scalar RSUExampleScenario.node[12].nic.mac1609_4 NumInternalContention 0
scalar RSUExampleScenario.node[12].nic.mac1609_4 totalBusyTime 0
scalar RSUExampleScenario.node[12].nic.mac1609_4 retriesExceeded:count 0
attr source org_car2x_veins_modules_mac_sigRetriesExceeded
scalar RSUExampleScenario.node[12].nic.mac1609_4 sentAcks:count 0
attr source org_car2x_veins_modules_mac_sigSentAck
scalar RSUExampleScenario.node[12].nic.mac1609_4 sentPackets:count 0
attr source org_car2x_veins_modules_mac_sigSentPacket
scalar RSUExampleScenario.node[12].nic.mac1609_4 collisions:count 0
attr source org_car2x_veins_modules_mac_sigCollision
scalar RSUExampleScenario.node[12].nic.mac1609_4 channelBusy:timeavg 0
attr source org_car2x_veins_modules_mac_sigChannelBusy
scalar RSUExampleScenario.node[12].veinsmobility startTime 37
scalar RSUExampleScenario.node[12].veinsmobility totalTime 80
scalar RSUExampleScenario.node[12].veinsmobility stopTime 117
scalar RSUExampleScenario.node[12].veinsmobility minSpeed 0.00028802977136604
scalar RSUExampleScenario.node[12].veinsmobility maxSpeed 13.999378900521
scalar RSUExampleScenario.node[12].veinsmobility totalDistance 876.20238290068
scalar RSUExampleScenario.node[12].veinsmobility totalCO2Emission 177.37030840572
scalar RSUExampleScenario.node[13].appl generatedWSMs 59
scalar RSUExampleScenario.node[13].appl receivedWSMs 80
scalar RSUExampleScenario.node[13].appl generatedBSMs 0
scalar RSUExampleScenario.node[13].appl receivedBSMs 760232352
scalar RSUExampleScenario.node[13].appl generatedWSAs 59
scalar RSUExampleScenario.node[13].appl receivedWSAs 0
scalar RSUExampleScenario.node[13].nic.phy80211p busyTime 0
scalar RSUExampleScenario.node[13].nic.mac1609_4 ReceivedUnicastPackets 0
scalar RSUExampleScenario.node[13].nic.mac1609_4 ReceivedBroadcasts 0
scalar RSUExampleScenario.node[13].nic.mac1609_4 SentPackets 0
scalar RSUExampleScenario.node[13].nic.mac1609_4 SentAcknowledgements 0
scalar RSUExampleScenario.node[13].nic.mac1609_4 RetriesExceeded 0
scalar RSUExampleScenario.node[13].nic.mac1609_4 SNIRLostPackets 0
scalar RSUExampleScenario.node[13].nic.mac1609_4 RXTXLostPackets 0
scalar RSUExampleScenario.node[13].nic.mac1609_4 TotalLostPackets 0
scalar RSUExampleScenario.node[13].nic.mac1609_4 DroppedPacketsInMac 0
scalar RSUExampleScenario.node[13].nic.mac1609_4 TooLittleTime 0
scalar RSUExampleScenario.node[13].nic.mac1609_4 TimesIntoBackoff 0
scalar RSUExampleScenario.node[13].nic.mac1609_4 SlotsBackoff 0
scalar RSUExampleScenario.node[13].nic.mac1609_4 NumInternalContention 0
scalar RSUExampleScenario.node[13].nic.mac1609_4 totalBusyTime 0
scalar RSUExampleScenario.node[13].nic.mac1609_4 retriesExceeded:count 0
attr source org_car2x_veins_modules_mac_sigRetriesExceeded
scalar RSUExampleScenario.node[13].nic.mac1609_4 sentAcks:count 0
attr source org_car2x_veins_modules_mac_sigSentAck
scalar RSUExampleScenario.node[13].nic.mac1609_4 sentPackets:count 0
attr source org_car2x_veins_modules_mac_sigSentPacket
scalar RSUExampleScenario.node[13].nic.mac1609_4 collisions:count 0
attr source org_car2x_veins_modules_mac_sigCollision
scalar RSUExampleScenario.node[13].nic.mac1609_4 channelBusy:timeavg 0
attr source org_car2x_veins_modules_mac_sigChannelBusy
scalar RSUExampleScenario.node[13].veinsmobility startTime 40
scalar RSUExampleScenario.node[13].veinsmobility totalTime 77
scalar RSUExampleScenario.node[13].veinsmobility stopTime 117
scalar RSUExampleScenario.node[13].veinsmobility minSpeed 0.0038212280803995
scalar RSUExampleScenario.node[13].veinsmobility maxSpeed 13.998249822583
scalar RSUExampleScenario.node[13].veinsmobility totalDistance 870.0878779605
scalar RSUExampleScenario.node[13].veinsmobility totalCO2Emission 174.4326057802
scalar RSUExampleScenario.node[14].appl generatedWSMs 0
scalar RSUExampleScenario.node[14].appl receivedWSMs 755331104
scalar RSUExampleScenario.node[14].appl generatedBSMs 0
scalar RSUExampleScenario.node[14].appl receivedBSMs 24
scalar RSUExampleScenario.node[14].appl generatedWSAs 761812336
scalar RSUExampleScenario.node[14].appl receivedWSAs 0
scalar RSUExampleScenario.node[14].nic.phy80211p busyTime 0
scalar RSUExampleScenario.node[14].nic.mac1609_4 ReceivedUnicastPackets 0
scalar RSUExampleScenario.node[14].nic.mac1609_4 ReceivedBroadcasts 0
scalar RSUExampleScenario.node[14].nic.mac1609_4 SentPackets 0
scalar RSUExampleScenario.node[14].nic.mac1609_4 SentAcknowledgements 0
scalar RSUExampleScenario.node[14].nic.mac1609_4 RetriesExceeded 0
scalar RSUExampleScenario.node[14].nic.mac1609_4 SNIRLostPackets 0
scalar RSUExampleScenario.node[14].nic.mac1609_4 RXTXLostPackets 0
scalar RSUExampleScenario.node[14].nic.mac1609_4 TotalLostPackets 0
scalar RSUExampleScenario.node[14].nic.mac1609_4 DroppedPacketsInMac 0
scalar RSUExampleScenario.node[14].nic.mac1609_4 TooLittleTime 0
scalar RSUExampleScenario.node[14].nic.mac1609_4 TimesIntoBackoff 0
scalar RSUExampleScenario.node[14].nic.mac1609_4 SlotsBackoff 0
scalar RSUExampleScenario.node[14].nic.mac1609_4 NumInternalContention 0
scalar RSUExampleScenario.node[14].nic.mac1609_4 totalBusyTime 0
scalar RSUExampleScenario.node[14].nic.mac1609_4 retriesExceeded:count 0
attr source org_car2x_veins_modules_mac_sigRetriesExceeded
scalar RSUExampleScenario.node[14].nic.mac1609_4 sentAcks:count 0
attr source org_car2x_veins_modules_mac_sigSentAck
scalar RSUExampleScenario.node[14].nic.mac1609_4 sentPackets:count 0
attr source org_car2x_veins_modules_mac_sigSentPacket
scalar RSUExampleScenario.node[14].nic.mac1609_4 collisions:count 0
attr source org_car2x_veins_modules_mac_sigCollision
scalar RSUExampleScenario.node[14].nic.mac1609_4 channelBusy:timeavg 0
attr source org_car2x_veins_modules_mac_sigChannelBusy
scalar RSUExampleScenario.node[14].veinsmobility startTime 43
scalar RSUExampleScenario.node[14].veinsmobility totalTime 74
scalar RSUExampleScenario.node[14].veinsmobility stopTime 117
scalar RSUExampleScenario.node[14].veinsmobility minSpeed 0.036455944960572
scalar RSUExampleScenario.node[14].veinsmobility maxSpeed 13.999124200887
scalar RSUExampleScenario.node[14].veinsmobility totalDistance 864.59789983037
scalar RSUExampleScenario.node[14].veinsmobility totalCO2Emission 173.2042568992
scalar RSUExampleScenario.node[15].appl generatedWSMs 16843009
scalar RSUExampleScenario.node[15].appl receivedWSMs 16843009
scalar RSUExampleScenario.node[15].appl generatedBSMs 16843009
scalar RSUExampleScenario.node[15].appl receivedBSMs 16843009
scalar RSUExampleScenario.node[15].appl generatedWSAs 16843009
scalar RSUExampleScenario.node[15].appl receivedWSAs 16843009
scalar RSUExampleScenario.node[15].nic.phy80211p busyTime 0
scalar RSUExampleScenario.node[15].nic.mac1609_4 ReceivedUnicastPackets 0
scalar RSUExampleScenario.node[15].nic.mac1609_4 ReceivedBroadcasts 0
scalar RSUExampleScenario.node[15].nic.mac1609_4 SentPackets 0
scalar RSUExampleScenario.node[15].nic.mac1609_4 SentAcknowledgements 0
scalar RSUExampleScenario.node[15].nic.mac1609_4 RetriesExceeded 0
scalar RSUExampleScenario.node[15].nic.mac1609_4 SNIRLostPackets 0
scalar RSUExampleScenario.node[15].nic.mac1609_4 RXTXLostPackets 0
scalar RSUExampleScenario.node[15].nic.mac1609_4 TotalLostPackets 0
scalar RSUExampleScenario.node[15].nic.mac1609_4 DroppedPacketsInMac 0
scalar RSUExampleScenario.node[15].nic.mac1609_4 TooLittleTime 0
scalar RSUExampleScenario.node[15].nic.mac1609_4 TimesIntoBackoff 0
scalar RSUExampleScenario.node[15].nic.mac1609_4 SlotsBackoff 0
scalar RSUExampleScenario.node[15].nic.mac1609_4 NumInternalContention 0
scalar RSUExampleScenario.node[15].nic.mac1609_4 totalBusyTime 0
scalar RSUExampleScenario.node[15].nic.mac1609_4 retriesExceeded:count 0
attr source org_car2x_veins_modules_mac_sigRetriesExceeded
scalar RSUExampleScenario.node[15].nic.mac1609_4 sentAcks:count 0
attr source org_car2x_veins_modules_mac_sigSentAck
scalar RSUExampleScenario.node[15].nic.mac1609_4 sentPackets:count 0
attr source org_car2x_veins_modules_mac_sigSentPacket
scalar RSUExampleScenario.node[15].nic.mac1609_4 collisions:count 0
attr source org_car2x_veins_modules_mac_sigCollision
scalar RSUExampleScenario.node[15].nic.mac1609_4 channelBusy:timeavg 0
attr source org_car2x_veins_modules_mac_sigChannelBusy
scalar RSUExampleScenario.node[15].veinsmobility startTime 46
scalar RSUExampleScenario.node[15].veinsmobility totalTime 71
scalar RSUExampleScenario.node[15].veinsmobility stopTime 117
scalar RSUExampleScenario.node[15].veinsmobility minSpeed 0.33556803365341
scalar RSUExampleScenario.node[15].veinsmobility maxSpeed 13.996701665553
scalar RSUExampleScenario.node[15].veinsmobility totalDistance 859.68657243708
scalar RSUExampleScenario.node[15].veinsmobility totalCO2Emission 168.83006770332
scalar RSUExampleScenario.node[16].appl generatedWSMs 127
scalar RSUExampleScenario.node[16].appl receivedWSMs 152
scalar RSUExampleScenario.node[16].appl generatedBSMs 0
scalar RSUExampleScenario.node[16].appl receivedBSMs 761900352
scalar RSUExampleScenario.node[16].appl generatedWSAs 127
scalar RSUExampleScenario.node[16].appl receivedWSAs 0
scalar RSUExampleScenario.node[16].nic.phy80211p busyTime 0
scalar RSUExampleScenario.node[16].nic.mac1609_4 ReceivedUnicastPackets 0
scalar RSUExampleScenario.node[16].nic.mac1609_4 ReceivedBroadcasts 0
scalar RSUExampleScenario.node[16].nic.mac1609_4 SentPackets 0
scalar RSUExampleScenario.node[16].nic.mac1609_4 SentAcknowledgements 0
scalar RSUExampleScenario.node[16].nic.mac1609_4 RetriesExceeded 0
scalar RSUExampleScenario.node[16].nic.mac1609_4 SNIRLostPackets 0
scalar RSUExampleScenario.node[16].nic.mac1609_4 RXTXLostPackets 0
scalar RSUExampleScenario.node[16].nic.mac1609_4 TotalLostPackets 0
scalar RSUExampleScenario.node[16].nic.mac1609_4 DroppedPacketsInMac 0
scalar RSUExampleScenario.node[16].nic.mac1609_4 TooLittleTime 0
scalar RSUExampleScenario.node[16].nic.mac1609_4 TimesIntoBackoff 0
scalar RSUExampleScenario.node[16].nic.mac1609_4 SlotsBackoff 0
scalar RSUExampleScenario.node[16].nic.mac1609_4 NumInternalContention 0
scalar RSUExampleScenario.node[16].nic.mac1609_4 totalBusyTime 0
scalar RSUExampleScenario.node[16].nic.mac1609_4 retriesExceeded:count 0
attr source org_car2x_veins_modules_mac_sigRetriesExceeded
scalar RSUExampleScenario.node[16].nic.mac1609_4 sentAcks:count 0
attr source org_car2x_veins_modules_mac_sigSentAck
scalar RSUExampleScenario.node[16].nic.mac1609_4 sentPackets:count 0
attr source org_car2x_veins_modules_mac_sigSentPacket
scalar RSUExampleScenario.node[16].nic.mac1609_4 collisions:count 0
attr source org_car2x_veins_modules_mac_sigCollision
scalar RSUExampleScenario.node[16].nic.mac1609_4 channelBusy:timeavg 0
attr source org_car2x_veins_modules_mac_sigChannelBusy
scalar RSUExampleScenario.node[16].veinsmobility startTime 49
scalar RSUExampleScenario.node[16].veinsmobility totalTime 68
scalar RSUExampleScenario.node[16].veinsmobility stopTime 117
scalar RSUExampleScenario.node[16].veinsmobility minSpeed 2.3841694112852
scalar RSUExampleScenario.node[16].veinsmobility maxSpeed 13.994805302613
scalar RSUExampleScenario.node[16].veinsmobility totalDistance 851.77556658416
scalar RSUExampleScenario.node[16].veinsmobility totalCO2Emission 165.30716344334
scalar RSUExampleScenario.node[17].appl generatedWSMs 0
scalar RSUExampleScenario.node[17].appl receivedWSMs 48
scalar RSUExampleScenario.node[17].appl generatedBSMs 0
scalar RSUExampleScenario.node[17].appl receivedBSMs 0
scalar RSUExampleScenario.node[17].appl generatedWSAs 144
scalar RSUExampleScenario.node[17].appl receivedWSAs 0
scalar RSUExampleScenario.node[17].nic.phy80211p busyTime 0
scalar RSUExampleScenario.node[17].nic.mac1609_4 ReceivedUnicastPackets 0
scalar RSUExampleScenario.node[17].nic.mac1609_4 ReceivedBroadcasts 0
scalar RSUExampleScenario.node[17].nic.mac1609_4 SentPackets 0
scalar RSUExampleScenario.node[17].nic.mac1609_4 SentAcknowledgements 0
scalar RSUExampleScenario.node[17].nic.mac1609_4 RetriesExceeded 0
scalar RSUExampleScenario.node[17].nic.mac1609_4 SNIRLostPackets 0
scalar RSUExampleScenario.node[17].nic.mac1609_4 RXTXLostPackets 0
scalar RSUExampleScenario.node[17].nic.mac1609_4 TotalLostPackets 0
scalar RSUExampleScenario.node[17].nic.mac1609_4 DroppedPacketsInMac 0
scalar RSUExampleScenario.node[17].nic.mac1609_4 TooLittleTime 0
scalar RSUExampleScenario.node[17].nic.mac1609_4 TimesIntoBackoff 0
scalar RSUExampleScenario.node[17].nic.mac1609_4 SlotsBackoff 0
scalar RSUExampleScenario.node[17].nic.mac1609_4 NumInternalContention 0
scalar RSUExampleScenario.node[17].nic.mac1609_4 totalBusyTime 0
scalar RSUExampleScenario.node[17].nic.mac1609_4 retriesExceeded:count 0
attr source org_car2x_veins_modules_mac_sigRetriesExceeded
scalar RSUExampleScenario.node[17].nic.mac1609_4 sentAcks:count 0
attr source org_car2x_veins_modules_mac_sigSentAck
scalar RSUExampleScenario.node[17].nic.mac1609_4 sentPackets:count 0
attr source org_car2x_veins_modules_mac_sigSentPacket
scalar RSUExampleScenario.node[17].nic.mac1609_4 collisions:count 0
attr source org_car2x_veins_modules_mac_sigCollision
scalar RSUExampleScenario.node[17].nic.mac1609_4 channelBusy:timeavg 0
attr source org_car2x_veins_modules_mac_sigChannelBusy
scalar RSUExampleScenario.node[17].veinsmobility startTime 52
scalar RSUExampleScenario.node[17].veinsmobility totalTime 65
scalar RSUExampleScenario.node[17].veinsmobility stopTime 117
scalar RSUExampleScenario.node[17].veinsmobility minSpeed 3.8698786158062
scalar RSUExampleScenario.node[17].veinsmobility maxSpeed 13.999012758983
scalar RSUExampleScenario.node[17].veinsmobility totalDistance 718.93870404284
scalar RSUExampleScenario.node[17].veinsmobility totalCO2Emission 144.22905228247
scalar RSUExampleScenario.node[18].appl generatedWSMs 16843009
scalar RSUExampleScenario.node[18].appl receivedWSMs 16843009
scalar RSUExampleScenario.node[18].appl generatedBSMs 16843009
scalar RSUExampleScenario.node[18].appl receivedBSMs 16843009
scalar RSUExampleScenario.node[18].appl generatedWSAs 16843009
scalar RSUExampleScenario.node[18].appl receivedWSAs 16843009
scalar RSUExampleScenario.node[18].nic.phy80211p busyTime 0
scalar RSUExampleScenario.node[18].nic.mac1609_4 ReceivedUnicastPackets 0
scalar RSUExampleScenario.node[18].nic.mac1609_4 ReceivedBroadcasts 0
scalar RSUExampleScenario.node[18].nic.mac1609_4 SentPackets 0
scalar RSUExampleScenario.node[18].nic.mac1609_4 SentAcknowledgements 0
scalar RSUExampleScenario.node[18].nic.mac1609_4 RetriesExceeded 0
scalar RSUExampleScenario.node[18].nic.mac1609_4 SNIRLostPackets 0
scalar RSUExampleScenario.node[18].nic.mac1609_4 RXTXLostPackets 0
scalar RSUExampleScenario.node[18].nic.mac1609_4 TotalLostPackets 0
scalar RSUExampleScenario.node[18].nic.mac1609_4 DroppedPacketsInMac 0
scalar RSUExampleScenario.node[18].nic.mac1609_4 TooLittleTime 0
scalar RSUExampleScenario.node[18].nic.mac1609_4 TimesIntoBackoff 0
scalar RSUExampleScenario.node[18].nic.mac1609_4 SlotsBackoff 0
scalar RSUExampleScenario.node[18].nic.mac1609_4 NumInternalContention 0
scalar RSUExampleScenario.node[18].nic.mac1609_4 totalBusyTime 0
scalar RSUExampleScenario.node[18].nic.mac1609_4 retriesExceeded:count 0
attr source org_car2x_veins_modules_mac_sigRetriesExceeded
scalar RSUExampleScenario.node[18].nic.mac1609_4 sentAcks:count 0
attr source org_car2x_veins_modules_mac_sigSentAck
scalar RSUExampleScenario.node[18].nic.mac1609_4 sentPackets:count 0
attr source org_car2x_veins_modules_mac_sigSentPacket
scalar RSUExampleScenario.node[18].nic.mac1609_4 collisions:count 0
attr source org_car2x_veins_modules_mac_sigCollision
scalar RSUExampleScenario.node[18].nic.mac1609_4 channelBusy:timeavg 0
attr source org_car2x_veins_modules_mac_sigChannelBusy
scalar RSUExampleScenario.node[18].veinsmobility startTime 55
scalar RSUExampleScenario.node[18].veinsmobility totalTime 62
scalar RSUExampleScenario.node[18].veinsmobility stopTime 117
scalar RSUExampleScenario.node[18].veinsmobility minSpeed 4.0700236807532
scalar RSUExampleScenario.node[18].veinsmobility maxSpeed 13.945582369453
scalar RSUExampleScenario.node[18].veinsmobility totalDistance 700.12962936404
scalar RSUExampleScenario.node[18].veinsmobility totalCO2Emission 144.38925217496
scalar RSUExampleScenario.node[19].appl generatedWSMs 0
scalar RSUExampleScenario.node[19].appl receivedWSMs 756094944
scalar RSUExampleScenario.node[19].appl generatedBSMs 0
scalar RSUExampleScenario.node[19].appl receivedBSMs 756094944
scalar RSUExampleScenario.node[19].appl generatedWSAs 756094944
scalar RSUExampleScenario.node[19].appl receivedWSAs 0
scalar RSUExampleScenario.node[19].nic.phy80211p busyTime 0
scalar RSUExampleScenario.node[19].nic.mac1609_4 ReceivedUnicastPackets 0
scalar RSUExampleScenario.node[19].nic.mac1609_4 ReceivedBroadcasts 0
scalar RSUExampleScenario.node[19].nic.mac1609_4 SentPackets 0
scalar RSUExampleScenario.node[19].nic.mac1609_4 SentAcknowledgements 0
scalar RSUExampleScenario.node[19].nic.mac1609_4 RetriesExceeded 0
scalar RSUExampleScenario.node[19].nic.mac1609_4 SNIRLostPackets 0
scalar RSUExampleScenario.node[19].nic.mac1609_4 RXTXLostPackets 0
scalar RSUExampleScenario.node[19].nic.mac1609_4 TotalLostPackets 0
scalar RSUExampleScenario.node[19].nic.mac1609_4 DroppedPacketsInMac 0
scalar RSUExampleScenario.node[19].nic.mac1609_4 TooLittleTime 0
scalar RSUExampleScenario.node[19].nic.mac1609_4 TimesIntoBackoff 0
scalar RSUExampleScenario.node[19].nic.mac1609_4 SlotsBackoff 0
scalar RSUExampleScenario.node[19].nic.mac1609_4 NumInternalContention 0
scalar RSUExampleScenario.node[19].nic.mac1609_4 totalBusyTime 0
scalar RSUExampleScenario.node[19].nic.mac1609_4 retriesExceeded:count 0
attr source org_car2x_veins_modules_mac_sigRetriesExceeded
scalar RSUExampleScenario.node[19].nic.mac1609_4 sentAcks:count 0
attr source org_car2x_veins_modules_mac_sigSentAck
scalar RSUExampleScenario.node[19].nic.mac1609_4 sentPackets:count 0
attr source org_car2x_veins_modules_mac_sigSentPacket
scalar RSUExampleScenario.node[19].nic.mac1609_4 collisions:count 0
attr source org_car2x_veins_modules_mac_sigCollision
scalar RSUExampleScenario.node[19].nic.mac1609_4 channelBusy:timeavg 0
attr source org_car2x_veins_modules_mac_sigChannelBusy
scalar RSUExampleScenario.node[19].veinsmobility startTime 58
scalar RSUExampleScenario.node[19].veinsmobility totalTime 59
scalar RSUExampleScenario.node[19].veinsmobility stopTime 117
scalar RSUExampleScenario.node[19].veinsmobility minSpeed 3.8447639940612
scalar RSUExampleScenario.node[19].veinsmobility maxSpeed 13.732799512765
scalar RSUExampleScenario.node[19].veinsmobility totalDistance 680.97712515485
scalar RSUExampleScenario.node[19].veinsmobility totalCO2Emission 140.36631189096
scalar RSUExampleScenario.node[20].appl generatedWSMs 0
scalar RSUExampleScenario.node[20].appl receivedWSMs 0
scalar RSUExampleScenario.node[20].appl generatedBSMs 0
scalar RSUExampleScenario.node[20].appl receivedBSMs 0
scalar RSUExampleScenario.node[20].appl generatedWSAs 462
scalar RSUExampleScenario.node[20].appl receivedWSAs 0
scalar RSUExampleScenario.node[20].nic.phy80211p busyTime 0
scalar RSUExampleScenario.node[20].nic.mac1609_4 ReceivedUnicastPackets 0
scalar RSUExampleScenario.node[20].nic.mac1609_4 ReceivedBroadcasts 0
scalar RSUExampleScenario.node[20].nic.mac1609_4 SentPackets 0
scalar RSUExampleScenario.node[20].nic.mac1609_4 SentAcknowledgements 0
scalar RSUExampleScenario.node[20].nic.mac1609_4 RetriesExceeded 0
scalar RSUExampleScenario.node[20].nic.mac1609_4 SNIRLostPackets 0
scalar RSUExampleScenario.node[20].nic.mac1609_4 RXTXLostPackets 0
scalar RSUExampleScenario.node[20].nic.mac1609_4 TotalLostPackets 0
scalar RSUExampleScenario.node[20].nic.mac1609_4 DroppedPacketsInMac 0
scalar RSUExampleScenario.node[20].nic.mac1609_4 TooLittleTime 0
scalar RSUExampleScenario.node[20].nic.mac1609_4 TimesIntoBackoff 0
scalar RSUExampleScenario.node[20].nic.mac1609_4 SlotsBackoff 0
scalar RSUExampleScenario.node[20].nic.mac1609_4 NumInternalContention 0
scalar RSUExampleScenario.node[20].nic.mac1609_4 totalBusyTime 0
scalar RSUExampleScenario.node[20].nic.mac1609_4 retriesExceeded:count 0
attr source org_car2x_veins_modules_mac_sigRetriesExceeded
scalar RSUExampleScenario.node[20].nic.mac1609_4 sentAcks:count 0
attr source org_car2x_veins_modules_mac_sigSentAck
scalar RSUExampleScenario.node[20].nic.mac1609_4 sentPackets:count 0
attr source org_car2x_veins_modules_mac_sigSentPacket
scalar RSUExampleScenario.node[20].nic.mac1609_4 collisions:count 0
attr source org_car2x_veins_modules_mac_sigCollision
scalar RSUExampleScenario.node[20].nic.mac1609_4 channelBusy:timeavg 0
attr source org_car2x_veins_modules_mac_sigChannelBusy
scalar RSUExampleScenario.node[20].veinsmobility startTime 61
scalar RSUExampleScenario.node[20].veinsmobility totalTime 56
scalar RSUExampleScenario.node[20].veinsmobility stopTime 117
scalar RSUExampleScenario.node[20].veinsmobility minSpeed 4.018615917157
scalar RSUExampleScenario.node[20].veinsmobility maxSpeed 13.970749160051
scalar RSUExampleScenario.node[20].veinsmobility totalDistance 661.09406736351
scalar RSUExampleScenario.node[20].veinsmobility totalCO2Emission 142.10341703653
scalar RSUExampleScenario.node[21].appl generatedWSMs 0
scalar RSUExampleScenario.node[21].appl receivedWSMs 0
scalar RSUExampleScenario.node[21].appl generatedBSMs 0
scalar RSUExampleScenario.node[21].appl receivedBSMs 0
scalar RSUExampleScenario.node[21].appl generatedWSAs 0
scalar RSUExampleScenario.node[21].appl receivedWSAs 0
scalar RSUExampleScenario.node[21].nic.phy80211p busyTime 0
scalar RSUExampleScenario.node[21].nic.mac1609_4 ReceivedUnicastPackets 0
scalar RSUExampleScenario.node[21].nic.mac1609_4 ReceivedBroadcasts 0
scalar RSUExampleScenario.node[21].nic.mac1609_4 SentPackets 0
scalar RSUExampleScenario.node[21].nic.mac1609_4 SentAcknowledgements 0
scalar RSUExampleScenario.node[21].nic.mac1609_4 RetriesExceeded 0
scalar RSUExampleScenario.node[21].nic.mac1609_4 SNIRLostPackets 0
scalar RSUExampleScenario.node[21].nic.mac1609_4 RXTXLostPackets 0
scalar RSUExampleScenario.node[21].nic.mac1609_4 TotalLostPackets 0
scalar RSUExampleScenario.node[21].nic.mac1609_4 DroppedPacketsInMac 0
scalar RSUExampleScenario.node[21].nic.mac1609_4 TooLittleTime 0
scalar RSUExampleScenario.node[21].nic.mac1609_4 TimesIntoBackoff 0
scalar RSUExampleScenario.node[21].nic.mac1609_4 SlotsBackoff 0
scalar RSUExampleScenario.node[21].nic.mac1609_4 NumInternalContention 0
scalar RSUExampleScenario.node[21].nic.mac1609_4 totalBusyTime 0
scalar RSUExampleScenario.node[21].nic.mac1609_4 retriesExceeded:count 0
attr source org_car2x_veins_modules_mac_sigRetriesExceeded
scalar RSUExampleScenario.node[21].nic.mac1609_4 sentAcks:count 0
attr source org_car2x_veins_modules_mac_sigSentAck
scalar RSUExampleScenario.node[21].nic.mac1609_4 sentPackets:count 0
attr source org_car2x_veins_modules_mac_sigSentPacket
scalar RSUExampleScenario.node[21].nic.mac1609_4 collisions:count 0
attr source org_car2x_veins_modules_mac_sigCollision
scalar RSUExampleScenario.node[21].nic.mac1609_4 channelBusy:timeavg 0
attr source org_car2x_veins_modules_mac_sigChannelBusy
scalar RSUExampleScenario.node[21].veinsmobility startTime 64
scalar RSUExampleScenario.node[21].veinsmobility totalTime 53
scalar RSUExampleScenario.node[21].veinsmobility stopTime 117
scalar RSUExampleScenario.node[21].veinsmobility minSpeed 4.2842987557744
scalar RSUExampleScenario.node[21].veinsmobility maxSpeed 13.993739581739
scalar RSUExampleScenario.node[21].veinsmobility totalDistance 643.31167261402
scalar RSUExampleScenario.node[21].veinsmobility totalCO2Emission 133.64705089379
scalar RSUExampleScenario.node[22].appl generatedWSMs 0
scalar RSUExampleScenario.node[22].appl receivedWSMs 2033142816
scalar RSUExampleScenario.node[22].appl generatedBSMs 32576
scalar RSUExampleScenario.node[22].appl receivedBSMs 0
scalar RSUExampleScenario.node[22].appl generatedWSAs 2033142816
scalar RSUExampleScenario.node[22].appl receivedWSAs 32576
scalar RSUExampleScenario.node[22].nic.phy80211p busyTime 0
scalar RSUExampleScenario.node[22].nic.mac1609_4 ReceivedUnicastPackets 0
scalar RSUExampleScenario.node[22].nic.mac1609_4 ReceivedBroadcasts 0
scalar RSUExampleScenario.node[22].nic.mac1609_4 SentPackets 0
scalar RSUExampleScenario.node[22].nic.mac1609_4 SentAcknowledgements 0
scalar RSUExampleScenario.node[22].nic.mac1609_4 RetriesExceeded 0
scalar RSUExampleScenario.node[22].nic.mac1609_4 SNIRLostPackets 0
scalar RSUExampleScenario.node[22].nic.mac1609_4 RXTXLostPackets 0
scalar RSUExampleScenario.node[22].nic.mac1609_4 TotalLostPackets 0
scalar RSUExampleScenario.node[22].nic.mac1609_4 DroppedPacketsInMac 0
scalar RSUExampleScenario.node[22].nic.mac1609_4 TooLittleTime 0
scalar RSUExampleScenario.node[22].nic.mac1609_4 TimesIntoBackoff 0
scalar RSUExampleScenario.node[22].nic.mac1609_4 SlotsBackoff 0
scalar RSUExampleScenario.node[22].nic.mac1609_4 NumInternalContention 0
scalar RSUExampleScenario.node[22].nic.mac1609_4 totalBusyTime 0
scalar RSUExampleScenario.node[22].nic.mac1609_4 retriesExceeded:count 0
attr source org_car2x_veins_modules_mac_sigRetriesExceeded
scalar RSUExampleScenario.node[22].nic.mac1609_4 sentAcks:count 0
attr source org_car2x_veins_modules_mac_sigSentAck
scalar RSUExampleScenario.node[22].nic.mac1609_4 sentPackets:count 0
attr source org_car2x_veins_modules_mac_sigSentPacket
scalar RSUExampleScenario.node[22].nic.mac1609_4 collisions:count 0
attr source org_car2x_veins_modules_mac_sigCollision
scalar RSUExampleScenario.node[22].nic.mac1609_4 channelBusy:timeavg 0
attr source org_car2x_veins_modules_mac_sigChannelBusy
scalar RSUExampleScenario.node[22].veinsmobility startTime 67
scalar RSUExampleScenario.node[22].veinsmobility totalTime 50
scalar RSUExampleScenario.node[22].veinsmobility stopTime 117
scalar RSUExampleScenario.node[22].veinsmobility minSpeed 4.1832233416825
scalar RSUExampleScenario.node[22].veinsmobility maxSpeed 13.990375978411
scalar RSUExampleScenario.node[22].veinsmobility totalDistance 624.19771211388
scalar RSUExampleScenario.node[22].veinsmobility totalCO2Emission 133.65265224455
scalar RSUExampleScenario.node[23].appl generatedWSMs 0
scalar RSUExampleScenario.node[23].appl receivedWSMs 2033142800
scalar RSUExampleScenario.node[23].appl generatedBSMs 32576
scalar RSUExampleScenario.node[23].appl receivedBSMs 3
scalar RSUExampleScenario.node[23].appl generatedWSAs 2033142800
scalar RSUExampleScenario.node[23].appl receivedWSAs 32576
scalar RSUExampleScenario.node[23].nic.phy80211p busyTime 0
scalar RSUExampleScenario.node[23].nic.mac1609_4 ReceivedUnicastPackets 0
scalar RSUExampleScenario.node[23].nic.mac1609_4 ReceivedBroadcasts 0
scalar RSUExampleScenario.node[23].nic.mac1609_4 SentPackets 0
scalar RSUExampleScenario.node[23].nic.mac1609_4 SentAcknowledgements 0
scalar RSUExampleScenario.node[23].nic.mac1609_4 RetriesExceeded 0
scalar RSUExampleScenario.node[23].nic.mac1609_4 SNIRLostPackets 0
scalar RSUExampleScenario.node[23].nic.mac1609_4 RXTXLostPackets 0
scalar RSUExampleScenario.node[23].nic.mac1609_4 TotalLostPackets 0
scalar RSUExampleScenario.node[23].nic.mac1609_4 DroppedPacketsInMac 0
scalar RSUExampleScenario.node[23].nic.mac1609_4 TooLittleTime 0
scalar RSUExampleScenario.node[23].nic.mac1609_4 TimesIntoBackoff 0
scalar RSUExampleScenario.node[23].nic.mac1609_4 SlotsBackoff 0
scalar RSUExampleScenario.node[23].nic.mac1609_4 NumInternalContention 0
scalar RSUExampleScenario.node[23].nic.mac1609_4 totalBusyTime 0
scalar RSUExampleScenario.node[23].nic.mac1609_4 retriesExceeded:count 0
attr source org_car2x_veins_modules_mac_sigRetriesExceeded
scalar RSUExampleScenario.node[23].nic.mac1609_4 sentAcks:count 0
attr source org_car2x_veins_modules_mac_sigSentAck
scalar RSUExampleScenario.node[23].nic.mac1609_4 sentPackets:count 0
attr source org_car2x_veins_modules_mac_sigSentPacket
scalar RSUExampleScenario.node[23].nic.mac1609_4 collisions:count 0
attr source org_car2x_veins_modules_mac_sigCollision
scalar RSUExampleScenario.node[23].nic.mac1609_4 channelBusy:timeavg 0
attr source org_car2x_veins_modules_mac_sigChannelBusy
scalar RSUExampleScenario.node[23].veinsmobility startTime 70
scalar RSUExampleScenario.node[23].veinsmobility totalTime 47
scalar RSUExampleScenario.node[23].veinsmobility stopTime 117
scalar RSUExampleScenario.node[23].veinsmobility minSpeed 4.0859593419879
scalar RSUExampleScenario.node[23].veinsmobility maxSpeed 12.487671430086
scalar RSUExampleScenario.node[23].veinsmobility totalDistance 504.96585808494
scalar RSUExampleScenario.node[23].veinsmobility totalCO2Emission 105.39816855846
scalar RSUExampleScenario.node[24].appl generatedWSMs 0
scalar RSUExampleScenario.node[24].appl receivedWSMs 192
scalar RSUExampleScenario.node[24].appl generatedBSMs 0
scalar RSUExampleScenario.node[24].appl receivedBSMs 256
scalar RSUExampleScenario.node[24].appl generatedWSAs 0
scalar RSUExampleScenario.node[24].appl receivedWSAs 128
scalar RSUExampleScenario.node[24].nic.phy80211p busyTime 0
scalar RSUExampleScenario.node[24].nic.mac1609_4 ReceivedUnicastPackets 0
scalar RSUExampleScenario.node[24].nic.mac1609_4 ReceivedBroadcasts 0
scalar RSUExampleScenario.node[24].nic.mac1609_4 SentPackets 0
scalar RSUExampleScenario.node[24].nic.mac1609_4 SentAcknowledgements 0
scalar RSUExampleScenario.node[24].nic.mac1609_4 RetriesExceeded 0
scalar RSUExampleScenario.node[24].nic.mac1609_4 SNIRLostPackets 0
scalar RSUExampleScenario.node[24].nic.mac1609_4 RXTXLostPackets 0
scalar RSUExampleScenario.node[24].nic.mac1609_4 TotalLostPackets 0
scalar RSUExampleScenario.node[24].nic.mac1609_4 DroppedPacketsInMac 0
scalar RSUExampleScenario.node[24].nic.mac1609_4 TooLittleTime 0
scalar RSUExampleScenario.node[24].nic.mac1609_4 TimesIntoBackoff 0
scalar RSUExampleScenario.node[24].nic.mac1609_4 SlotsBackoff 0
scalar RSUExampleScenario.node[24].nic.mac1609_4 NumInternalContention 0
scalar RSUExampleScenario.node[24].nic.mac1609_4 totalBusyTime 0
scalar RSUExampleScenario.node[24].nic.mac1609_4 retriesExceeded:count 0
attr source org_car2x_veins_modules_mac_sigRetriesExceeded
scalar RSUExampleScenario.node[24].nic.mac1609_4 sentAcks:count 0
attr source org_car2x_veins_modules_mac_sigSentAck
scalar RSUExampleScenario.node[24].nic.mac1609_4 sentPackets:count 0
attr source org_car2x_veins_modules_mac_sigSentPacket
scalar RSUExampleScenario.node[24].nic.mac1609_4 collisions:count 0
attr source org_car2x_veins_modules_mac_sigCollision
scalar RSUExampleScenario.node[24].nic.mac1609_4 channelBusy:timeavg 0
attr source org_car2x_veins_modules_mac_sigChannelBusy
scalar RSUExampleScenario.node[24].veinsmobility startTime 73
scalar RSUExampleScenario.node[24].veinsmobility totalTime 44
scalar RSUExampleScenario.node[24].veinsmobility stopTime 117
scalar RSUExampleScenario.node[24].veinsmobility minSpeed 4.0735588402093
scalar RSUExampleScenario.node[24].veinsmobility maxSpeed 13.683893160937
scalar RSUExampleScenario.node[24].veinsmobility totalDistance 487.30431610773
scalar RSUExampleScenario.node[24].veinsmobility totalCO2Emission 103.86121446397
scalar RSUExampleScenario.node[25].appl generatedWSMs 16843009
scalar RSUExampleScenario.node[25].appl receivedWSMs 16843009
scalar RSUExampleScenario.node[25].appl generatedBSMs 16843009
scalar RSUExampleScenario.node[25].appl receivedBSMs 16843009
scalar RSUExampleScenario.node[25].appl generatedWSAs 16843009
scalar RSUExampleScenario.node[25].appl receivedWSAs 16843009
scalar RSUExampleScenario.node[25].nic.phy80211p busyTime 0
scalar RSUExampleScenario.node[25].nic.mac1609_4 ReceivedUnicastPackets 0
scalar RSUExampleScenario.node[25].nic.mac1609_4 ReceivedBroadcasts 0
scalar RSUExampleScenario.node[25].nic.mac1609_4 SentPackets 0
scalar RSUExampleScenario.node[25].nic.mac1609_4 SentAcknowledgements 0
scalar RSUExampleScenario.node[25].nic.mac1609_4 RetriesExceeded 0
scalar RSUExampleScenario.node[25].nic.mac1609_4 SNIRLostPackets 0
scalar RSUExampleScenario.node[25].nic.mac1609_4 RXTXLostPackets 0
scalar RSUExampleScenario.node[25].nic.mac1609_4 TotalLostPackets 0
scalar RSUExampleScenario.node[25].nic.mac1609_4 DroppedPacketsInMac 0
scalar RSUExampleScenario.node[25].nic.mac1609_4 TooLittleTime 0
scalar RSUExampleScenario.node[25].nic.mac1609_4 TimesIntoBackoff 0
scalar RSUExampleScenario.node[25].nic.mac1609_4 SlotsBackoff 0
scalar RSUExampleScenario.node[25].nic.mac1609_4 NumInternalContention 0
scalar RSUExampleScenario.node[25].nic.mac1609_4 totalBusyTime 0
scalar RSUExampleScenario.node[25].nic.mac1609_4 retriesExceeded:count 0
attr source org_car2x_veins_modules_mac_sigRetriesExceeded
scalar RSUExampleScenario.node[25].nic.mac1609_4 sentAcks:count 0
attr source org_car2x_veins_modules_mac_sigSentAck
scalar RSUExampleScenario.node[25].nic.mac1609_4 sentPackets:count 0
attr source org_car2x_veins_modules_mac_sigSentPacket
scalar RSUExampleScenario.node[25].nic.mac1609_4 collisions:count 0
attr source org_car2x_veins_modules_mac_sigCollision
scalar RSUExampleScenario.node[25].nic.mac1609_4 channelBusy:timeavg 0
attr source org_car2x_veins_modules_mac_sigChannelBusy
scalar RSUExampleScenario.node[25].veinsmobility startTime 76
scalar RSUExampleScenario.node[25].veinsmobility totalTime 41
scalar RSUExampleScenario.node[25].veinsmobility stopTime 117
scalar RSUExampleScenario.node[25].veinsmobility minSpeed 4.0635240824116
scalar RSUExampleScenario.node[25].veinsmobility maxSpeed 13.995084378871
scalar RSUExampleScenario.node[25].veinsmobility totalDistance 469.3443987328
scalar RSUExampleScenario.node[25].veinsmobility totalCO2Emission 103.60389146437
scalar RSUExampleScenario.node[26].appl generatedWSMs 16843009
scalar RSUExampleScenario.node[26].appl receivedWSMs 16843009
scalar RSUExampleScenario.node[26].appl generatedBSMs 16843009
scalar RSUExampleScenario.node[26].appl receivedBSMs 16843009
scalar RSUExampleScenario.node[26].appl generatedWSAs 16843009
scalar RSUExampleScenario.node[26].appl receivedWSAs 16843009
scalar RSUExampleScenario.node[26].nic.phy80211p busyTime 0
scalar RSUExampleScenario.node[26].nic.mac1609_4 ReceivedUnicastPackets 0
scalar RSUExampleScenario.node[26].nic.mac1609_4 ReceivedBroadcasts 0
scalar RSUExampleScenario.node[26].nic.mac1609_4 SentPackets 0
scalar RSUExampleScenario.node[26].nic.mac1609_4 SentAcknowledgements 0
scalar RSUExampleScenario.node[26].nic.mac1609_4 RetriesExceeded 0
scalar RSUExampleScenario.node[26].nic.mac1609_4 SNIRLostPackets 0
scalar RSUExampleScenario.node[26].nic.mac1609_4 RXTXLostPackets 0
scalar RSUExampleScenario.node[26].nic.mac1609_4 TotalLostPackets 0
scalar RSUExampleScenario.node[26].nic.mac1609_4 DroppedPacketsInMac 0
scalar RSUExampleScenario.node[26].nic.mac1609_4 TooLittleTime 0
scalar RSUExampleScenario.node[26].nic.mac1609_4 TimesIntoBackoff 0
scalar RSUExampleScenario.node[26].nic.mac1609_4 SlotsBackoff 0
scalar RSUExampleScenario.node[26].nic.mac1609_4 NumInternalContention 0
scalar RSUExampleScenario.node[26].nic.mac1609_4 totalBusyTime 0
scalar RSUExampleScenario.node[26].nic.mac1609_4 retriesExceeded:count 0
attr source org_car2x_veins_modules_mac_sigRetriesExceeded
scalar RSUExampleScenario.node[26].nic.mac1609_4 sentAcks:count 0
attr source org_car2x_veins_modules_mac_sigSentAck
scalar RSUExampleScenario.node[26].nic.mac1609_4 sentPackets:count 0
attr source org_car2x_veins_modules_mac_sigSentPacket
scalar RSUExampleScenario.node[26].nic.mac1609_4 collisions:count 0
attr source org_car2x_veins_modules_mac_sigCollision
scalar RSUExampleScenario.node[26].nic.mac1609_4 channelBusy:timeavg 0
attr source org_car2x_veins_modules_mac_sigChannelBusy
scalar RSUExampleScenario.node[26].veinsmobility startTime 79
scalar RSUExampleScenario.node[26].veinsmobility totalTime 38
scalar RSUExampleScenario.node[26].veinsmobility stopTime 117
scalar RSUExampleScenario.node[26].veinsmobility minSpeed 4.0267229073465
scalar RSUExampleScenario.node[26].veinsmobility maxSpeed 13.995347008838
scalar RSUExampleScenario.node[26].veinsmobility totalDistance 450.57279428288
scalar RSUExampleScenario.node[26].veinsmobility totalCO2Emission 101.13822325988
scalar RSUExampleScenario.node[27].appl generatedWSMs 0
scalar RSUExampleScenario.node[27].appl receivedWSMs 49
scalar RSUExampleScenario.node[27].appl generatedBSMs 0
scalar RSUExampleScenario.node[27].appl receivedBSMs 762441120
scalar RSUExampleScenario.node[27].appl generatedWSAs 0
scalar RSUExampleScenario.node[27].appl receivedWSAs 0
scalar RSUExampleScenario.node[27].nic.phy80211p busyTime 0
scalar RSUExampleScenario.node[27].nic.mac1609_4 ReceivedUnicastPackets 0
scalar RSUExampleScenario.node[27].nic.mac1609_4 ReceivedBroadcasts 0
scalar RSUExampleScenario.node[27].nic.mac1609_4 SentPackets 0
scalar RSUExampleScenario.node[27].nic.mac1609_4 SentAcknowledgements 0
scalar RSUExampleScenario.node[27].nic.mac1609_4 RetriesExceeded 0
scalar RSUExampleScenario.node[27].nic.mac1609_4 SNIRLostPackets 0
scalar RSUExampleScenario.node[27].nic.mac1609_4 RXTXLostPackets 0
scalar RSUExampleScenario.node[27].nic.mac1609_4 TotalLostPackets 0
scalar RSUExampleScenario.node[27].nic.mac1609_4 DroppedPacketsInMac 0
scalar RSUExampleScenario.node[27].nic.mac1609_4 TooLittleTime 0
scalar RSUExampleScenario.node[27].nic.mac1609_4 TimesIntoBackoff 0
scalar RSUExampleScenario.node[27].nic.mac1609_4 SlotsBackoff 0
scalar RSUExampleScenario.node[27].nic.mac1609_4 NumInternalContention 0
scalar RSUExampleScenario.node[27].nic.mac1609_4 totalBusyTime 0
scalar RSUExampleScenario.node[27].nic.mac1609_4 retriesExceeded:count 0
attr source org_car2x_veins_modules_mac_sigRetriesExceeded
scalar RSUExampleScenario.node[27].nic.mac1609_4 sentAcks:count 0
attr source org_car2x_veins_modules_mac_sigSentAck
scalar RSUExampleScenario.node[27].nic.mac1609_4 sentPackets:count 0
attr source org_car2x_veins_modules_mac_sigSentPacket
scalar RSUExampleScenario.node[27].nic.mac1609_4 collisions:count 0
attr source org_car2x_veins_modules_mac_sigCollision
scalar RSUExampleScenario.node[27].nic.mac1609_4 channelBusy:timeavg 0
attr source org_car2x_veins_modules_mac_sigChannelBusy
scalar RSUExampleScenario.node[27].veinsmobility startTime 82
scalar RSUExampleScenario.node[27].veinsmobility totalTime 35
scalar RSUExampleScenario.node[27].veinsmobility stopTime 117
scalar RSUExampleScenario.node[27].veinsmobility minSpeed 3.8169569386458
scalar RSUExampleScenario.node[27].veinsmobility maxSpeed 13.998507969014
scalar RSUExampleScenario.node[27].veinsmobility totalDistance 420.23770804281
scalar RSUExampleScenario.node[27].veinsmobility totalCO2Emission 104.46961245746
scalar RSUExampleScenario.node[28].appl generatedWSMs 0
scalar RSUExampleScenario.node[28].appl receivedWSMs 759990416
scalar RSUExampleScenario.node[28].appl generatedBSMs 0
scalar RSUExampleScenario.node[28].appl receivedBSMs 759990416
scalar RSUExampleScenario.node[28].appl generatedWSAs 759990416
scalar RSUExampleScenario.node[28].appl receivedWSAs 0
scalar RSUExampleScenario.node[28].nic.phy80211p busyTime 0
scalar RSUExampleScenario.node[28].nic.mac1609_4 ReceivedUnicastPackets 0
scalar RSUExampleScenario.node[28].nic.mac1609_4 ReceivedBroadcasts 0
scalar RSUExampleScenario.node[28].nic.mac1609_4 SentPackets 0
scalar RSUExampleScenario.node[28].nic.mac1609_4 SentAcknowledgements 0
scalar RSUExampleScenario.node[28].nic.mac1609_4 RetriesExceeded 0
scalar RSUExampleScenario.node[28].nic.mac1609_4 SNIRLostPackets 0
scalar RSUExampleScenario.node[28].nic.mac1609_4 RXTXLostPackets 0
scalar RSUExampleScenario.node[28].nic.mac1609_4 TotalLostPackets 0
scalar RSUExampleScenario.node[28].nic.mac1609_4 DroppedPacketsInMac 0
scalar RSUExampleScenario.node[28].nic.mac1609_4 TooLittleTime 0
scalar RSUExampleScenario.node[28].nic.mac1609_4 TimesIntoBackoff 0
scalar RSUExampleScenario.node[28].nic.mac1609_4 SlotsBackoff 0
scalar RSUExampleScenario.node[28].nic.mac1609_4 NumInternalContention 0
scalar RSUExampleScenario.node[28].nic.mac1609_4 totalBusyTime 0
scalar RSUExampleScenario.node[28].nic.mac1609_4 retriesExceeded:count 0
attr source org_car2x_veins_modules_mac_sigRetriesExceeded
scalar RSUExampleScenario.node[28].nic.mac1609_4 sentAcks:count 0
attr source org_car2x_veins_modules_mac_sigSentAck
scalar RSUExampleScenario.node[28].nic.mac1609_4 sentPackets:count 0
attr source org_car2x_veins_modules_mac_sigSentPacket
scalar RSUExampleScenario.node[28].nic.mac1609_4 collisions:count 0
attr source org_car2x_veins_modules_mac_sigCollision
scalar RSUExampleScenario.node[28].nic.mac1609_4 channelBusy:timeavg 0
attr source org_car2x_veins_modules_mac_sigChannelBusy
scalar RSUExampleScenario.node[28].veinsmobility startTime 85
scalar RSUExampleScenario.node[28].veinsmobility totalTime 32
scalar RSUExampleScenario.node[28].veinsmobility stopTime 117
scalar RSUExampleScenario.node[28].veinsmobility minSpeed 4.0343364698305
scalar RSUExampleScenario.node[28].veinsmobility maxSpeed 13.996805413971
scalar RSUExampleScenario.node[28].veinsmobility totalDistance 382.34664121492
scalar RSUExampleScenario.node[28].veinsmobility totalCO2Emission 98.763310296144
scalar RSUExampleScenario.node[29].appl generatedWSMs 0
scalar RSUExampleScenario.node[29].appl receivedWSMs 2033142800
scalar RSUExampleScenario.node[29].appl generatedBSMs 32576
scalar RSUExampleScenario.node[29].appl receivedBSMs 16843009
scalar RSUExampleScenario.node[29].appl generatedWSAs 2033142800
scalar RSUExampleScenario.node[29].appl receivedWSAs 32576
scalar RSUExampleScenario.node[29].nic.phy80211p busyTime 0
scalar RSUExampleScenario.node[29].nic.mac1609_4 ReceivedUnicastPackets 0
scalar RSUExampleScenario.node[29].nic.mac1609_4 ReceivedBroadcasts 0
scalar RSUExampleScenario.node[29].nic.mac1609_4 SentPackets 0
scalar RSUExampleScenario.node[29].nic.mac1609_4 SentAcknowledgements 0
scalar RSUExampleScenario.node[29].nic.mac1609_4 RetriesExceeded 0
scalar RSUExampleScenario.node[29].nic.mac1609_4 SNIRLostPackets 0
scalar RSUExampleScenario.node[29].nic.mac1609_4 RXTXLostPackets 0
scalar RSUExampleScenario.node[29].nic.mac1609_4 TotalLostPackets 0
scalar RSUExampleScenario.node[29].nic.mac1609_4 DroppedPacketsInMac 0
scalar RSUExampleScenario.node[29].nic.mac1609_4 TooLittleTime 0
scalar RSUExampleScenario.node[29].nic.mac1609_4 TimesIntoBackoff 0
scalar RSUExampleScenario.node[29].nic.mac1609_4 SlotsBackoff 0
scalar RSUExampleScenario.node[29].nic.mac1609_4 NumInternalContention 0
scalar RSUExampleScenario.node[29].nic.mac1609_4 totalBusyTime 0
scalar RSUExampleScenario.node[29].nic.mac1609_4 retriesExceeded:count 0
attr source org_car2x_veins_modules_mac_sigRetriesExceeded
scalar RSUExampleScenario.node[29].nic.mac1609_4 sentAcks:count 0
attr source org_car2x_veins_modules_mac_sigSentAck
scalar RSUExampleScenario.node[29].nic.mac1609_4 sentPackets:count 0
attr source org_car2x_veins_modules_mac_sigSentPacket
scalar RSUExampleScenario.node[29].nic.mac1609_4 collisions:count 0
attr source org_car2x_veins_modules_mac_sigCollision
scalar RSUExampleScenario.node[29].nic.mac1609_4 channelBusy:timeavg 0
attr source org_car2x_veins_modules_mac_sigChannelBusy
scalar RSUExampleScenario.node[29].veinsmobility startTime 88
scalar RSUExampleScenario.node[29].veinsmobility totalTime 29
scalar RSUExampleScenario.node[29].veinsmobility stopTime 117
scalar RSUExampleScenario.node[29].veinsmobility minSpeed 4.0013211675714
scalar RSUExampleScenario.node[29].veinsmobility maxSpeed 13.999199340187
scalar RSUExampleScenario.node[29].veinsmobility totalDistance 343.20943176485
scalar RSUExampleScenario.node[29].veinsmobility totalCO2Emission 92.756318364438
scalar RSUExampleScenario.node[30].appl generatedWSMs 0
scalar RSUExampleScenario.node[30].appl receivedWSMs 192
scalar RSUExampleScenario.node[30].appl generatedBSMs 0
scalar RSUExampleScenario.node[30].appl receivedBSMs 256
scalar RSUExampleScenario.node[30].appl generatedWSAs 0
scalar RSUExampleScenario.node[30].appl receivedWSAs 128
scalar RSUExampleScenario.node[30].nic.phy80211p busyTime 0
scalar RSUExampleScenario.node[30].nic.mac1609_4 ReceivedUnicastPackets 0
scalar RSUExampleScenario.node[30].nic.mac1609_4 ReceivedBroadcasts 0
scalar RSUExampleScenario.node[30].nic.mac1609_4 SentPackets 0
scalar RSUExampleScenario.node[30].nic.mac1609_4 SentAcknowledgements 0
scalar RSUExampleScenario.node[30].nic.mac1609_4 RetriesExceeded 0
scalar RSUExampleScenario.node[30].nic.mac1609_4 SNIRLostPackets 0
scalar RSUExampleScenario.node[30].nic.mac1609_4 RXTXLostPackets 0
scalar RSUExampleScenario.node[30].nic.mac1609_4 TotalLostPackets 0
scalar RSUExampleScenario.node[30].nic.mac1609_4 DroppedPacketsInMac 0
scalar RSUExampleScenario.node[30].nic.mac1609_4 TooLittleTime 0
scalar RSUExampleScenario.node[30].nic.mac1609_4 TimesIntoBackoff 0
scalar RSUExampleScenario.node[30].nic.mac1609_4 SlotsBackoff 0
scalar RSUExampleScenario.node[30].nic.mac1609_4 NumInternalContention 0
scalar RSUExampleScenario.node[30].nic.mac1609_4 totalBusyTime 0
scalar RSUExampleScenario.node[30].nic.mac1609_4 retriesExceeded:count 0
attr source org_car2x_veins_modules_mac_sigRetriesExceeded
scalar RSUExampleScenario.node[30].nic.mac1609_4 sentAcks:count 0
attr source org_car2x_veins_modules_mac_sigSentAck
[...]
scalar RSUExampleScenario.node[30].veinsmobility totalCO2Emission 87.107475844919
scalar RSUExampleScenario.node[31].appl generatedWSMs 0
scalar RSUExampleScenario.node[31].appl receivedWSMs 0
scalar RSUExampleScenario.node[31].appl generatedBSMs 1077174272
scalar RSUExampleScenario.node[31].appl receivedBSMs 0
scalar RSUExampleScenario.node[31].appl generatedWSAs 0
scalar RSUExampleScenario.node[31].appl receivedWSAs 1075429376
scalar RSUExampleScenario.node[31].nic.phy80211p busyTime 0
scalar RSUExampleScenario.node[31].nic.mac1609_4 ReceivedUnicastPackets 0
scalar RSUExampleScenario.node[31].nic.mac1609_4 ReceivedBroadcasts 0
scalar RSUExampleScenario.node[31].nic.mac1609_4 SentPackets 0
scalar RSUExampleScenario.node[31].nic.mac1609_4 SentAcknowledgements 0
scalar RSUExampleScenario.node[31].nic.mac1609_4 RetriesExceeded 0
scalar RSUExampleScenario.node[31].nic.mac1609_4 SNIRLostPackets 0
scalar RSUExampleScenario.node[31].nic.mac1609_4 RXTXLostPackets 0
scalar RSUExampleScenario.node[31].nic.mac1609_4 TotalLostPackets 0
scalar RSUExampleScenario.node[31].nic.mac1609_4 DroppedPacketsInMac 0
scalar RSUExampleScenario.node[31].nic.mac1609_4 TooLittleTime 0
scalar RSUExampleScenario.node[31].nic.mac1609_4 TimesIntoBackoff 0
scalar RSUExampleScenario.node[31].nic.mac1609_4 SlotsBackoff 0
scalar RSUExampleScenario.node[31].nic.mac1609_4 NumInternalContention 0
scalar RSUExampleScenario.node[31].nic.mac1609_4 totalBusyTime 0
scalar RSUExampleScenario.node[31].nic.mac1609_4 retriesExceeded:count 0
attr source org_car2x_veins_modules_mac_sigRetriesExceeded
scalar RSUExampleScenario.node[31].nic.mac1609_4 sentAcks:count 0
attr source org_car2x_veins_modules_mac_sigSentAck
scalar RSUExampleScenario.node[31].nic.mac1609_4 sentPackets:count 0
attr source org_car2x_veins_modules_mac_sigSentPacket
scalar RSUExampleScenario.node[31].nic.mac1609_4 collisions:count 0
attr source org_car2x_veins_modules_mac_sigCollision
scalar RSUExampleScenario.node[31].nic.mac1609_4 channelBusy:timeavg 0
attr source org_car2x_veins_modules_mac_sigChannelBusy
scalar RSUExampleScenario.node[31].veinsmobility startTime 94
scalar RSUExampleScenario.node[31].veinsmobility totalTime 23
scalar RSUExampleScenario.node[31].veinsmobility stopTime 117
scalar RSUExampleScenario.node[31].veinsmobility minSpeed 4.2052558286512
scalar RSUExampleScenario.node[31].veinsmobility maxSpeed 13.987348329513
scalar RSUExampleScenario.node[31].veinsmobility totalDistance 261.18154494976
scalar RSUExampleScenario.node[31].veinsmobility totalCO2Emission 81.35558297405
scalar RSUExampleScenario.node[32].appl generatedWSMs 1076627276
scalar RSUExampleScenario.node[32].appl receivedWSMs 49
scalar RSUExampleScenario.node[32].appl generatedBSMs 1075525632
scalar RSUExampleScenario.node[32].appl receivedBSMs 2033142784
scalar RSUExampleScenario.node[32].appl generatedWSAs 0
scalar RSUExampleScenario.node[32].appl receivedWSAs 0
scalar RSUExampleScenario.node[32].nic.phy80211p busyTime 0
scalar RSUExampleScenario.node[32].nic.mac1609_4 ReceivedUnicastPackets 0
scalar RSUExampleScenario.node[32].nic.mac1609_4 ReceivedBroadcasts 0
scalar RSUExampleScenario.node[32].nic.mac1609_4 SentPackets 0
scalar RSUExampleScenario.node[32].nic.mac1609_4 SentAcknowledgements 0
scalar RSUExampleScenario.node[32].nic.mac1609_4 RetriesExceeded 0
scalar RSUExampleScenario.node[32].nic.mac1609_4 SNIRLostPackets 0
scalar RSUExampleScenario.node[32].nic.mac1609_4 RXTXLostPackets 0
scalar RSUExampleScenario.node[32].nic.mac1609_4 TotalLostPackets 0
scalar RSUExampleScenario.node[32].nic.mac1609_4 DroppedPacketsInMac 0
scalar RSUExampleScenario.node[32].nic.mac1609_4 TooLittleTime 0
scalar RSUExampleScenario.node[32].nic.mac1609_4 TimesIntoBackoff 0
scalar RSUExampleScenario.node[32].nic.mac1609_4 SlotsBackoff 0
scalar RSUExampleScenario.node[32].nic.mac1609_4 NumInternalContention 0
scalar RSUExampleScenario.node[32].nic.mac1609_4 totalBusyTime 0
scalar RSUExampleScenario.node[32].nic.mac1609_4 retriesExceeded:count 0
attr source org_car2x_veins_modules_mac_sigRetriesExceeded
scalar RSUExampleScenario.node[32].nic.mac1609_4 sentAcks:count 0
attr source org_car2x_veins_modules_mac_sigSentAck
scalar RSUExampleScenario.node[32].nic.mac1609_4 sentPackets:count 0
attr source org_car2x_veins_modules_mac_sigSentPacket
scalar RSUExampleScenario.node[32].nic.mac1609_4 collisions:count 0
attr source org_car2x_veins_modules_mac_sigCollision
scalar RSUExampleScenario.node[32].nic.mac1609_4 channelBusy:timeavg 0
attr source org_car2x_veins_modules_mac_sigChannelBusy
scalar RSUExampleScenario.node[32].veinsmobility startTime 97
scalar RSUExampleScenario.node[32].veinsmobility totalTime 20
scalar RSUExampleScenario.node[32].veinsmobility stopTime 117
scalar RSUExampleScenario.node[32].veinsmobility minSpeed 3.9195603011693
scalar RSUExampleScenario.node[32].veinsmobility maxSpeed 11.690614702022
scalar RSUExampleScenario.node[32].veinsmobility totalDistance 208.29071813559
scalar RSUExampleScenario.node[32].veinsmobility totalCO2Emission 49.920426469233
scalar RSUExampleScenario.node[33].appl generatedWSMs 0
scalar RSUExampleScenario.node[33].appl receivedWSMs 758585376
scalar RSUExampleScenario.node[33].appl generatedBSMs 0
scalar RSUExampleScenario.node[33].appl receivedBSMs 758585376
scalar RSUExampleScenario.node[33].appl generatedWSAs 758585376
scalar RSUExampleScenario.node[33].appl receivedWSAs 0
scalar RSUExampleScenario.node[33].nic.phy80211p busyTime 0
scalar RSUExampleScenario.node[33].nic.mac1609_4 ReceivedUnicastPackets 0
scalar RSUExampleScenario.node[33].nic.mac1609_4 ReceivedBroadcasts 0
scalar RSUExampleScenario.node[33].nic.mac1609_4 SentPackets 0
scalar RSUExampleScenario.node[33].nic.mac1609_4 SentAcknowledgements 0
scalar RSUExampleScenario.node[33].nic.mac1609_4 RetriesExceeded 0
scalar RSUExampleScenario.node[33].nic.mac1609_4 SNIRLostPackets 0
scalar RSUExampleScenario.node[33].nic.mac1609_4 RXTXLostPackets 0
scalar RSUExampleScenario.node[33].nic.mac1609_4 TotalLostPackets 0
scalar RSUExampleScenario.node[33].nic.mac1609_4 DroppedPacketsInMac 0
scalar RSUExampleScenario.node[33].nic.mac1609_4 TooLittleTime 0
scalar RSUExampleScenario.node[33].nic.mac1609_4 TimesIntoBackoff 0
scalar RSUExampleScenario.node[33].nic.mac1609_4 SlotsBackoff 0
scalar RSUExampleScenario.node[33].nic.mac1609_4 NumInternalContention 0
scalar RSUExampleScenario.node[33].nic.mac1609_4 totalBusyTime 0
scalar RSUExampleScenario.node[33].nic.mac1609_4 retriesExceeded:count 0
attr source org_car2x_veins_modules_mac_sigRetriesExceeded
scalar RSUExampleScenario.node[33].nic.mac1609_4 sentAcks:count 0
attr source org_car2x_veins_modules_mac_sigSentAck
scalar RSUExampleScenario.node[33].nic.mac1609_4 sentPackets:count 0
attr source org_car2x_veins_modules_mac_sigSentPacket
scalar RSUExampleScenario.node[33].nic.mac1609_4 collisions:count 0
attr source org_car2x_veins_modules_mac_sigCollision
scalar RSUExampleScenario.node[33].nic.mac1609_4 channelBusy:timeavg 0
attr source org_car2x_veins_modules_mac_sigChannelBusy
scalar RSUExampleScenario.node[33].veinsmobility startTime 100
scalar RSUExampleScenario.node[33].veinsmobility totalTime 17
scalar RSUExampleScenario.node[33].veinsmobility stopTime 117
scalar RSUExampleScenario.node[33].veinsmobility minSpeed 3.9747482432421
scalar RSUExampleScenario.node[33].veinsmobility maxSpeed 13.693409157151
scalar RSUExampleScenario.node[33].veinsmobility totalDistance 189.45444083097
scalar RSUExampleScenario.node[33].veinsmobility totalCO2Emission 47.897986844878
scalar RSUExampleScenario.node[34].appl generatedWSMs 0
scalar RSUExampleScenario.node[34].appl receivedWSMs 192
scalar RSUExampleScenario.node[34].appl generatedBSMs 0
scalar RSUExampleScenario.node[34].appl receivedBSMs 256
scalar RSUExampleScenario.node[34].appl generatedWSAs 0
scalar RSUExampleScenario.node[34].appl receivedWSAs 128
scalar RSUExampleScenario.node[34].nic.phy80211p busyTime 0
scalar RSUExampleScenario.node[34].nic.mac1609_4 ReceivedUnicastPackets 0
scalar RSUExampleScenario.node[34].nic.mac1609_4 ReceivedBroadcasts 0
scalar RSUExampleScenario.node[34].nic.mac1609_4 SentPackets 0
scalar RSUExampleScenario.node[34].nic.mac1609_4 SentAcknowledgements 0
scalar RSUExampleScenario.node[34].nic.mac1609_4 RetriesExceeded 0
scalar RSUExampleScenario.node[34].nic.mac1609_4 SNIRLostPackets 0
scalar RSUExampleScenario.node[34].nic.mac1609_4 RXTXLostPackets 0
scalar RSUExampleScenario.node[34].nic.mac1609_4 TotalLostPackets 0
scalar RSUExampleScenario.node[34].nic.mac1609_4 DroppedPacketsInMac 0
scalar RSUExampleScenario.node[34].nic.mac1609_4 TooLittleTime 0
scalar RSUExampleScenario.node[34].nic.mac1609_4 TimesIntoBackoff 0
scalar RSUExampleScenario.node[34].nic.mac1609_4 SlotsBackoff 0
scalar RSUExampleScenario.node[34].nic.mac1609_4 NumInternalContention 0
scalar RSUExampleScenario.node[34].nic.mac1609_4 totalBusyTime 0
scalar RSUExampleScenario.node[34].nic.mac1609_4 retriesExceeded:count 0
attr source org_car2x_veins_modules_mac_sigRetriesExceeded
scalar RSUExampleScenario.node[34].nic.mac1609_4 sentAcks:count 0
attr source org_car2x_veins_modules_mac_sigSentAck
scalar RSUExampleScenario.node[34].nic.mac1609_4 sentPackets:count 0
attr source org_car2x_veins_modules_mac_sigSentPacket
scalar RSUExampleScenario.node[34].nic.mac1609_4 collisions:count 0
attr source org_car2x_veins_modules_mac_sigCollision
scalar RSUExampleScenario.node[34].nic.mac1609_4 channelBusy:timeavg 0
attr source org_car2x_veins_modules_mac_sigChannelBusy
scalar RSUExampleScenario.node[34].veinsmobility startTime 103
scalar RSUExampleScenario.node[34].veinsmobility totalTime 14
scalar RSUExampleScenario.node[34].veinsmobility stopTime 117
scalar RSUExampleScenario.node[34].veinsmobility minSpeed 4.2292426157767
scalar RSUExampleScenario.node[34].veinsmobility maxSpeed 13.996805452956
scalar RSUExampleScenario.node[34].veinsmobility totalDistance 160.36113203889
scalar RSUExampleScenario.node[34].veinsmobility totalCO2Emission 48.268321626063
scalar RSUExampleScenario.node[35].appl generatedWSMs 0
scalar RSUExampleScenario.node[35].appl receivedWSMs 2033142800
scalar RSUExampleScenario.node[35].appl generatedBSMs 32576
scalar RSUExampleScenario.node[35].appl receivedBSMs 3
scalar RSUExampleScenario.node[35].appl generatedWSAs 2033142800
scalar RSUExampleScenario.node[35].appl receivedWSAs 32576
scalar RSUExampleScenario.node[35].nic.phy80211p busyTime 0
scalar RSUExampleScenario.node[35].nic.mac1609_4 ReceivedUnicastPackets 0
scalar RSUExampleScenario.node[35].nic.mac1609_4 ReceivedBroadcasts 0
scalar RSUExampleScenario.node[35].nic.mac1609_4 SentPackets 0
scalar RSUExampleScenario.node[35].nic.mac1609_4 SentAcknowledgements 0
scalar RSUExampleScenario.node[35].nic.mac1609_4 RetriesExceeded 0
scalar RSUExampleScenario.node[35].nic.mac1609_4 SNIRLostPackets 0
scalar RSUExampleScenario.node[35].nic.mac1609_4 RXTXLostPackets 0
scalar RSUExampleScenario.node[35].nic.mac1609_4 TotalLostPackets 0
scalar RSUExampleScenario.node[35].nic.mac1609_4 DroppedPacketsInMac 0
scalar RSUExampleScenario.node[35].nic.mac1609_4 TooLittleTime 0
scalar RSUExampleScenario.node[35].nic.mac1609_4 TimesIntoBackoff 0
scalar RSUExampleScenario.node[35].nic.mac1609_4 SlotsBackoff 0
scalar RSUExampleScenario.node[35].nic.mac1609_4 NumInternalContention 0
scalar RSUExampleScenario.node[35].nic.mac1609_4 totalBusyTime 0
scalar RSUExampleScenario.node[35].nic.mac1609_4 retriesExceeded:count 0
attr source org_car2x_veins_modules_mac_sigRetriesExceeded
scalar RSUExampleScenario.node[35].nic.mac1609_4 sentAcks:count 0
attr source org_car2x_veins_modules_mac_sigSentAck
scalar RSUExampleScenario.node[35].nic.mac1609_4 sentPackets:count 0
attr source org_car2x_veins_modules_mac_sigSentPacket
scalar RSUExampleScenario.node[35].nic.mac1609_4 collisions:count 0
attr source org_car2x_veins_modules_mac_sigCollision
scalar RSUExampleScenario.node[35].nic.mac1609_4 channelBusy:timeavg 0
attr source org_car2x_veins_modules_mac_sigChannelBusy
scalar RSUExampleScenario.node[35].veinsmobility startTime 106
scalar RSUExampleScenario.node[35].veinsmobility totalTime 11
scalar RSUExampleScenario.node[35].veinsmobility stopTime 117
scalar RSUExampleScenario.node[35].veinsmobility minSpeed 3.828069966125
scalar RSUExampleScenario.node[35].veinsmobility maxSpeed 13.952015913378
scalar RSUExampleScenario.node[35].veinsmobility totalDistance 115.27115835078
scalar RSUExampleScenario.node[35].veinsmobility totalCO2Emission 42.219384662129
scalar RSUExampleScenario.node[36].appl generatedWSMs 0
scalar RSUExampleScenario.node[36].appl receivedWSMs 1811939456
scalar RSUExampleScenario.node[36].appl generatedBSMs 32576
scalar RSUExampleScenario.node[36].appl receivedBSMs 0
scalar RSUExampleScenario.node[36].appl generatedWSAs 1811973632
scalar RSUExampleScenario.node[36].appl receivedWSAs 32576
scalar RSUExampleScenario.node[36].nic.phy80211p busyTime 0
scalar RSUExampleScenario.node[36].nic.mac1609_4 ReceivedUnicastPackets 0
scalar RSUExampleScenario.node[36].nic.mac1609_4 ReceivedBroadcasts 0
scalar RSUExampleScenario.node[36].nic.mac1609_4 SentPackets 0
scalar RSUExampleScenario.node[36].nic.mac1609_4 SentAcknowledgements 0
scalar RSUExampleScenario.node[36].nic.mac1609_4 RetriesExceeded 0
scalar RSUExampleScenario.node[36].nic.mac1609_4 SNIRLostPackets 0
scalar RSUExampleScenario.node[36].nic.mac1609_4 RXTXLostPackets 0
scalar RSUExampleScenario.node[36].nic.mac1609_4 TotalLostPackets 0
scalar RSUExampleScenario.node[36].nic.mac1609_4 DroppedPacketsInMac 0
scalar RSUExampleScenario.node[36].nic.mac1609_4 TooLittleTime 0
scalar RSUExampleScenario.node[36].nic.mac1609_4 TimesIntoBackoff 0
scalar RSUExampleScenario.node[36].nic.mac1609_4 SlotsBackoff 0
scalar RSUExampleScenario.node[36].nic.mac1609_4 NumInternalContention 0
scalar RSUExampleScenario.node[36].nic.mac1609_4 totalBusyTime 0
scalar RSUExampleScenario.node[36].nic.mac1609_4 retriesExceeded:count 0
attr source org_car2x_veins_modules_mac_sigRetriesExceeded
scalar RSUExampleScenario.node[36].nic.mac1609_4 sentAcks:count 0
attr source org_car2x_veins_modules_mac_sigSentAck
scalar RSUExampleScenario.node[36].nic.mac1609_4 sentPackets:count 0
attr source org_car2x_veins_modules_mac_sigSentPacket
scalar RSUExampleScenario.node[36].nic.mac1609_4 collisions:count 0
attr source org_car2x_veins_modules_mac_sigCollision
scalar RSUExampleScenario.node[36].nic.mac1609_4 channelBusy:timeavg 0
attr source org_car2x_veins_modules_mac_sigChannelBusy
scalar RSUExampleScenario.node[36].veinsmobility startTime 109
scalar RSUExampleScenario.node[36].veinsmobility totalTime 8
scalar RSUExampleScenario.node[36].veinsmobility stopTime 117
scalar RSUExampleScenario.node[36].veinsmobility minSpeed 3.9549282409494
scalar RSUExampleScenario.node[36].veinsmobility maxSpeed 13.959599067254
scalar RSUExampleScenario.node[36].veinsmobility totalDistance 74.632137511322
scalar RSUExampleScenario.node[36].veinsmobility totalCO2Emission 36.032076059138
scalar RSUExampleScenario.node[37].appl generatedWSMs 1075614378
scalar RSUExampleScenario.node[37].appl receivedWSMs 0
scalar RSUExampleScenario.node[37].appl generatedBSMs 0
scalar RSUExampleScenario.node[37].appl receivedBSMs 2863311531
scalar RSUExampleScenario.node[37].appl generatedWSAs 3
scalar RSUExampleScenario.node[37].appl receivedWSAs 1073831936
scalar RSUExampleScenario.node[37].nic.phy80211p busyTime 0
scalar RSUExampleScenario.node[37].nic.mac1609_4 ReceivedUnicastPackets 0
scalar RSUExampleScenario.node[37].nic.mac1609_4 ReceivedBroadcasts 0
scalar RSUExampleScenario.node[37].nic.mac1609_4 SentPackets 0
scalar RSUExampleScenario.node[37].nic.mac1609_4 SentAcknowledgements 0
scalar RSUExampleScenario.node[37].nic.mac1609_4 RetriesExceeded 0
scalar RSUExampleScenario.node[37].nic.mac1609_4 SNIRLostPackets 0
scalar RSUExampleScenario.node[37].nic.mac1609_4 RXTXLostPackets 0
scalar RSUExampleScenario.node[37].nic.mac1609_4 TotalLostPackets 0
scalar RSUExampleScenario.node[37].nic.mac1609_4 DroppedPacketsInMac 0
scalar RSUExampleScenario.node[37].nic.mac1609_4 TooLittleTime 0
scalar RSUExampleScenario.node[37].nic.mac1609_4 TimesIntoBackoff 0
scalar RSUExampleScenario.node[37].nic.mac1609_4 SlotsBackoff 0
scalar RSUExampleScenario.node[37].nic.mac1609_4 NumInternalContention 0
scalar RSUExampleScenario.node[37].nic.mac1609_4 totalBusyTime 0
scalar RSUExampleScenario.node[37].nic.mac1609_4 retriesExceeded:count 0
attr source org_car2x_veins_modules_mac_sigRetriesExceeded
scalar RSUExampleScenario.node[37].nic.mac1609_4 sentAcks:count 0
attr source org_car2x_veins_modules_mac_sigSentAck
scalar RSUExampleScenario.node[37].nic.mac1609_4 sentPackets:count 0
attr source org_car2x_veins_modules_mac_sigSentPacket
scalar RSUExampleScenario.node[37].nic.mac1609_4 collisions:count 0
attr source org_car2x_veins_modules_mac_sigCollision
scalar RSUExampleScenario.node[37].nic.mac1609_4 channelBusy:timeavg 0
attr source org_car2x_veins_modules_mac_sigChannelBusy
scalar RSUExampleScenario.node[37].veinsmobility startTime 112
scalar RSUExampleScenario.node[37].veinsmobility totalTime 5
scalar RSUExampleScenario.node[37].veinsmobility stopTime 117
scalar RSUExampleScenario.node[37].veinsmobility minSpeed 4.0468560271259
scalar RSUExampleScenario.node[37].veinsmobility maxSpeed 11.990398769466
scalar RSUExampleScenario.node[37].veinsmobility totalDistance 35.818800737706
scalar RSUExampleScenario.node[37].veinsmobility totalCO2Emission 23.761071638595
scalar RSUExampleScenario.node[38].appl generatedWSMs 1074642944
scalar RSUExampleScenario.node[38].appl receivedWSMs 0
scalar RSUExampleScenario.node[38].appl generatedBSMs 1078558720
scalar RSUExampleScenario.node[38].appl receivedBSMs 0
scalar RSUExampleScenario.node[38].appl generatedWSAs 0
scalar RSUExampleScenario.node[38].appl receivedWSAs 1074642944
scalar RSUExampleScenario.node[38].nic.phy80211p busyTime 0
scalar RSUExampleScenario.node[38].nic.mac1609_4 ReceivedUnicastPackets 0
scalar RSUExampleScenario.node[38].nic.mac1609_4 ReceivedBroadcasts 0
scalar RSUExampleScenario.node[38].nic.mac1609_4 SentPackets 0
scalar RSUExampleScenario.node[38].nic.mac1609_4 SentAcknowledgements 0
scalar RSUExampleScenario.node[38].nic.mac1609_4 RetriesExceeded 0
scalar RSUExampleScenario.node[38].nic.mac1609_4 SNIRLostPackets 0
scalar RSUExampleScenario.node[38].nic.mac1609_4 RXTXLostPackets 0
scalar RSUExampleScenario.node[38].nic.mac1609_4 TotalLostPackets 0
scalar RSUExampleScenario.node[38].nic.mac1609_4 DroppedPacketsInMac 0
scalar RSUExampleScenario.node[38].nic.mac1609_4 TooLittleTime 0
scalar RSUExampleScenario.node[38].nic.mac1609_4 TimesIntoBackoff 0
scalar RSUExampleScenario.node[38].nic.mac1609_4 SlotsBackoff 0
scalar RSUExampleScenario.node[38].nic.mac1609_4 NumInternalContention 0
scalar RSUExampleScenario.node[38].nic.mac1609_4 totalBusyTime 0
scalar RSUExampleScenario.node[38].nic.mac1609_4 retriesExceeded:count 0
attr source org_car2x_veins_modules_mac_sigRetriesExceeded
scalar RSUExampleScenario.node[38].nic.mac1609_4 sentAcks:count 0
attr source org_car2x_veins_modules_mac_sigSentAck
scalar RSUExampleScenario.node[38].nic.mac1609_4 sentPackets:count 0
attr source org_car2x_veins_modules_mac_sigSentPacket
scalar RSUExampleScenario.node[38].nic.mac1609_4 collisions:count 0
attr source org_car2x_veins_modules_mac_sigCollision
scalar RSUExampleScenario.node[38].nic.mac1609_4 channelBusy:timeavg 0
attr source org_car2x_veins_modules_mac_sigChannelBusy
scalar RSUExampleScenario.node[38].veinsmobility startTime 115
scalar RSUExampleScenario.node[38].veinsmobility totalTime 2
scalar RSUExampleScenario.node[38].veinsmobility stopTime 117
scalar RSUExampleScenario.node[38].veinsmobility minSpeed 4.2921992871535
scalar RSUExampleScenario.node[38].veinsmobility maxSpeed 6.3890385901157
scalar RSUExampleScenario.node[38].veinsmobility totalDistance 8.6989378989805
scalar RSUExampleScenario.node[38].veinsmobility totalCO2Emission 4.6709252960266

