version 2
run General-0-20250518-02:06:53-53423
attr configname General
attr datetime 20250518-02:06:53
attr experiment General
attr inifile omnetpp.ini
attr iterationvars ""
attr iterationvarsf ""
attr measurement ""
attr network RSUExampleScenario
attr processid 53423
attr repetition 0
attr replication #0
attr resultdir results
attr runnumber 0
attr seedset 0
param *.playgroundSizeX 1000m
param *.playgroundSizeY 1000m
param *.playgroundSizeZ 50m
param *.manager.launchConfig "xmldoc(\"../../../sumo_scenarios/SUMO-Manhattan-1km_x_1km/100_0.launchd.xml\")"
param *.obstacles.obstacles "xmldoc(\"config.xml\", \"//AnalogueModel[@type='SimpleObstacleShadowing']/obstacles\")"
param *.connectionManager.sendDirect true
param *.connectionManager.maxInterfDist 260m
param *.**.nic.phy80211p.usePropagationDelay true
param *.**.nic.phy80211p.useNoiseFloor true
param *.**.nic.phy80211p.noiseFloor -98dBm
param *.**.nic.phy80211p.decider "xmldoc(\"config.xml\")"
param *.**.nic.phy80211p.analogueModels "xmldoc(\"config.xml\")"
param *.**.nic.phy80211p.minPowerLevel -110dBm
param *.**.nic.mac1609_4.txPower 20mW
param *.**.nic.mac1609_4.bitrate 6Mbps
param *.rsu[*].applType "\"TraCIDemoRSU11p\""
param *.rsu[0].mobility.x 200
param *.rsu[0].mobility.y 200
param *.rsu[0].mobility.z 3
param *.node[*].applType "\"TraCIDemo11p\""
param *.node[*].veinsmobility.x 0
param *.node[*].veinsmobility.y 0
param *.node[*].veinsmobility.z 0
param *.node[*].veinsmobility.setHostSpeed false

scalar RSUExampleScenario.node[26].appl generatedWSMs 0
scalar RSUExampleScenario.node[26].appl receivedWSMs 0
scalar RSUExampleScenario.node[26].appl generatedBSMs 19
scalar RSUExampleScenario.node[26].appl receivedBSMs 48
scalar RSUExampleScenario.node[26].appl generatedWSAs 0
scalar RSUExampleScenario.node[26].appl receivedWSAs 0
scalar RSUExampleScenario.node[26].nic.phy80211p busyTime 0.00043242105263158
scalar RSUExampleScenario.node[26].nic.mac1609_4 ReceivedUnicastPackets 0
scalar RSUExampleScenario.node[26].nic.mac1609_4 ReceivedBroadcasts 48
scalar RSUExampleScenario.node[26].nic.mac1609_4 SentPackets 19
scalar RSUExampleScenario.node[26].nic.mac1609_4 SentAcknowledgements 0
scalar RSUExampleScenario.node[26].nic.mac1609_4 RetriesExceeded 0
scalar RSUExampleScenario.node[26].nic.mac1609_4 SNIRLostPackets 31
scalar RSUExampleScenario.node[26].nic.mac1609_4 RXTXLostPackets 0
scalar RSUExampleScenario.node[26].nic.mac1609_4 TotalLostPackets 31
scalar RSUExampleScenario.node[26].nic.mac1609_4 DroppedPacketsInMac 0
scalar RSUExampleScenario.node[26].nic.mac1609_4 TooLittleTime 0
scalar RSUExampleScenario.node[26].nic.mac1609_4 TimesIntoBackoff 19
scalar RSUExampleScenario.node[26].nic.mac1609_4 SlotsBackoff 35
scalar RSUExampleScenario.node[26].nic.mac1609_4 NumInternalContention 0
scalar RSUExampleScenario.node[26].nic.mac1609_4 totalBusyTime 0.010211
scalar RSUExampleScenario.node[26].nic.mac1609_4 retriesExceeded:count 0
attr source org_car2x_veins_modules_mac_sigRetriesExceeded
scalar RSUExampleScenario.node[26].nic.mac1609_4 sentAcks:count 0
attr source org_car2x_veins_modules_mac_sigSentAck
scalar RSUExampleScenario.node[26].nic.mac1609_4 sentPackets:count 19
attr source org_car2x_veins_modules_mac_sigSentPacket
scalar RSUExampleScenario.node[26].nic.mac1609_4 collisions:count 0
attr source org_car2x_veins_modules_mac_sigCollision
scalar RSUExampleScenario.node[26].nic.mac1609_4 channelBusy:timeavg 0.00053742105263158
attr source org_car2x_veins_modules_mac_sigChannelBusy
scalar RSUExampleScenario.node[26].veinsmobility startTime 1
scalar RSUExampleScenario.node[26].veinsmobility totalTime 18
scalar RSUExampleScenario.node[26].veinsmobility stopTime 20
scalar RSUExampleScenario.node[26].veinsmobility minSpeed 1.7152554555098
scalar RSUExampleScenario.node[26].veinsmobility maxSpeed 14.207450408165
scalar RSUExampleScenario.node[26].veinsmobility totalDistance 179.03960164432
scalar RSUExampleScenario.node[26].veinsmobility totalCO2Emission 75.039287562049
scalar RSUExampleScenario.node[65].appl generatedWSMs 0
scalar RSUExampleScenario.node[65].appl receivedWSMs 0
scalar RSUExampleScenario.node[65].appl generatedBSMs 24
scalar RSUExampleScenario.node[65].appl receivedBSMs 90
scalar RSUExampleScenario.node[65].appl generatedWSAs 0
scalar RSUExampleScenario.node[65].appl receivedWSAs 0
scalar RSUExampleScenario.node[65].nic.phy80211p busyTime 0.00047666666666667
scalar RSUExampleScenario.node[65].nic.mac1609_4 ReceivedUnicastPackets 0
scalar RSUExampleScenario.node[65].nic.mac1609_4 ReceivedBroadcasts 90
scalar RSUExampleScenario.node[65].nic.mac1609_4 SentPackets 24
scalar RSUExampleScenario.node[65].nic.mac1609_4 SentAcknowledgements 0
scalar RSUExampleScenario.node[65].nic.mac1609_4 RetriesExceeded 0
scalar RSUExampleScenario.node[65].nic.mac1609_4 SNIRLostPackets 20
scalar RSUExampleScenario.node[65].nic.mac1609_4 RXTXLostPackets 0
scalar RSUExampleScenario.node[65].nic.mac1609_4 TotalLostPackets 20
scalar RSUExampleScenario.node[65].nic.mac1609_4 DroppedPacketsInMac 0
scalar RSUExampleScenario.node[65].nic.mac1609_4 TooLittleTime 0
scalar RSUExampleScenario.node[65].nic.mac1609_4 TimesIntoBackoff 24
scalar RSUExampleScenario.node[65].nic.mac1609_4 SlotsBackoff 43
scalar RSUExampleScenario.node[65].nic.mac1609_4 NumInternalContention 0
scalar RSUExampleScenario.node[65].nic.mac1609_4 totalBusyTime 0.01396
scalar RSUExampleScenario.node[65].nic.mac1609_4 retriesExceeded:count 0
attr source org_car2x_veins_modules_mac_sigRetriesExceeded
scalar RSUExampleScenario.node[65].nic.mac1609_4 sentAcks:count 0
attr source org_car2x_veins_modules_mac_sigSentAck
scalar RSUExampleScenario.node[65].nic.mac1609_4 sentPackets:count 24
attr source org_car2x_veins_modules_mac_sigSentPacket
scalar RSUExampleScenario.node[65].nic.mac1609_4 collisions:count 0
attr source org_car2x_veins_modules_mac_sigCollision
scalar RSUExampleScenario.node[65].nic.mac1609_4 channelBusy:timeavg 0.00058166666666667
attr source org_car2x_veins_modules_mac_sigChannelBusy
scalar RSUExampleScenario.node[65].veinsmobility startTime 1
scalar RSUExampleScenario.node[65].veinsmobility totalTime 23
scalar RSUExampleScenario.node[65].veinsmobility stopTime 25
scalar RSUExampleScenario.node[65].veinsmobility minSpeed 1.3689486144111
scalar RSUExampleScenario.node[65].veinsmobility maxSpeed 16.711699694874
scalar RSUExampleScenario.node[65].veinsmobility totalDistance 273.65992194127
scalar RSUExampleScenario.node[65].veinsmobility totalCO2Emission 105.98536128942
scalar RSUExampleScenario.node[22].appl generatedWSMs 0
scalar RSUExampleScenario.node[22].appl receivedWSMs 0
scalar RSUExampleScenario.node[22].appl generatedBSMs 31
scalar RSUExampleScenario.node[22].appl receivedBSMs 176
scalar RSUExampleScenario.node[22].appl generatedWSAs 0
scalar RSUExampleScenario.node[22].appl receivedWSAs 0
scalar RSUExampleScenario.node[22].nic.phy80211p busyTime 0.0007581935483871
scalar RSUExampleScenario.node[22].nic.mac1609_4 ReceivedUnicastPackets 0
scalar RSUExampleScenario.node[22].nic.mac1609_4 ReceivedBroadcasts 176
scalar RSUExampleScenario.node[22].nic.mac1609_4 SentPackets 31
scalar RSUExampleScenario.node[22].nic.mac1609_4 SentAcknowledgements 0
scalar RSUExampleScenario.node[22].nic.mac1609_4 RetriesExceeded 0
scalar RSUExampleScenario.node[22].nic.mac1609_4 SNIRLostPackets 50
scalar RSUExampleScenario.node[22].nic.mac1609_4 RXTXLostPackets 0
scalar RSUExampleScenario.node[22].nic.mac1609_4 TotalLostPackets 50
scalar RSUExampleScenario.node[22].nic.mac1609_4 DroppedPacketsInMac 0
scalar RSUExampleScenario.node[22].nic.mac1609_4 TooLittleTime 0
scalar RSUExampleScenario.node[22].nic.mac1609_4 TimesIntoBackoff 31
scalar RSUExampleScenario.node[22].nic.mac1609_4 SlotsBackoff 41
scalar RSUExampleScenario.node[22].nic.mac1609_4 NumInternalContention 0
scalar RSUExampleScenario.node[22].nic.mac1609_4 totalBusyTime 0.026759
scalar RSUExampleScenario.node[22].nic.mac1609_4 retriesExceeded:count 0
attr source org_car2x_veins_modules_mac_sigRetriesExceeded
scalar RSUExampleScenario.node[22].nic.mac1609_4 sentAcks:count 0
attr source org_car2x_veins_modules_mac_sigSentAck
scalar RSUExampleScenario.node[22].nic.mac1609_4 sentPackets:count 31
attr source org_car2x_veins_modules_mac_sigSentPacket
scalar RSUExampleScenario.node[22].nic.mac1609_4 collisions:count 0
attr source org_car2x_veins_modules_mac_sigCollision
scalar RSUExampleScenario.node[22].nic.mac1609_4 channelBusy:timeavg 0.0008631935483871
attr source org_car2x_veins_modules_mac_sigChannelBusy
scalar RSUExampleScenario.node[22].veinsmobility startTime 1
scalar RSUExampleScenario.node[22].veinsmobility totalTime 30
scalar RSUExampleScenario.node[22].veinsmobility stopTime 32
scalar RSUExampleScenario.node[22].veinsmobility minSpeed 1.5609465687769
scalar RSUExampleScenario.node[22].veinsmobility maxSpeed 15.944091410039
scalar RSUExampleScenario.node[22].veinsmobility totalDistance 377.96044416981
scalar RSUExampleScenario.node[22].veinsmobility totalCO2Emission 117.54788327122
scalar RSUExampleScenario.node[86].appl generatedWSMs 0
scalar RSUExampleScenario.node[86].appl receivedWSMs 2
scalar RSUExampleScenario.node[86].appl generatedBSMs 31
scalar RSUExampleScenario.node[86].appl receivedBSMs 187
scalar RSUExampleScenario.node[86].appl generatedWSAs 0
scalar RSUExampleScenario.node[86].appl receivedWSAs 0
scalar RSUExampleScenario.node[86].nic.phy80211p busyTime 0.00076645161290323
scalar RSUExampleScenario.node[86].nic.mac1609_4 ReceivedUnicastPackets 0
scalar RSUExampleScenario.node[86].nic.mac1609_4 ReceivedBroadcasts 189
scalar RSUExampleScenario.node[86].nic.mac1609_4 SentPackets 31
scalar RSUExampleScenario.node[86].nic.mac1609_4 SentAcknowledgements 0
scalar RSUExampleScenario.node[86].nic.mac1609_4 RetriesExceeded 0
scalar RSUExampleScenario.node[86].nic.mac1609_4 SNIRLostPackets 37
scalar RSUExampleScenario.node[86].nic.mac1609_4 RXTXLostPackets 0
scalar RSUExampleScenario.node[86].nic.mac1609_4 TotalLostPackets 37
scalar RSUExampleScenario.node[86].nic.mac1609_4 DroppedPacketsInMac 0
scalar RSUExampleScenario.node[86].nic.mac1609_4 TooLittleTime 0
scalar RSUExampleScenario.node[86].nic.mac1609_4 TimesIntoBackoff 31
scalar RSUExampleScenario.node[86].nic.mac1609_4 SlotsBackoff 58
scalar RSUExampleScenario.node[86].nic.mac1609_4 NumInternalContention 0
scalar RSUExampleScenario.node[86].nic.mac1609_4 totalBusyTime 0.027015
scalar RSUExampleScenario.node[86].nic.mac1609_4 retriesExceeded:count 0
attr source org_car2x_veins_modules_mac_sigRetriesExceeded
scalar RSUExampleScenario.node[86].nic.mac1609_4 sentAcks:count 0
attr source org_car2x_veins_modules_mac_sigSentAck
scalar RSUExampleScenario.node[86].nic.mac1609_4 sentPackets:count 31
attr source org_car2x_veins_modules_mac_sigSentPacket
scalar RSUExampleScenario.node[86].nic.mac1609_4 collisions:count 0
attr source org_car2x_veins_modules_mac_sigCollision
scalar RSUExampleScenario.node[86].nic.mac1609_4 channelBusy:timeavg 0.00087145161290323
attr source org_car2x_veins_modules_mac_sigChannelBusy
scalar RSUExampleScenario.node[86].veinsmobility startTime 1
scalar RSUExampleScenario.node[86].veinsmobility totalTime 30
scalar RSUExampleScenario.node[86].veinsmobility stopTime 32
scalar RSUExampleScenario.node[86].veinsmobility minSpeed 0.95311095749299
scalar RSUExampleScenario.node[86].veinsmobility maxSpeed 15.903512524255
scalar RSUExampleScenario.node[86].veinsmobility totalDistance 275.88743298528
scalar RSUExampleScenario.node[86].veinsmobility totalCO2Emission 134.0349056449
scalar RSUExampleScenario.node[66].appl generatedWSMs 1
scalar RSUExampleScenario.node[66].appl receivedWSMs 3
scalar RSUExampleScenario.node[66].appl generatedBSMs 33
scalar RSUExampleScenario.node[66].appl receivedBSMs 117
scalar RSUExampleScenario.node[66].appl generatedWSAs 0
scalar RSUExampleScenario.node[66].appl receivedWSAs 0
scalar RSUExampleScenario.node[66].nic.phy80211p busyTime 0.00047806060606061
scalar RSUExampleScenario.node[66].nic.mac1609_4 ReceivedUnicastPackets 0
scalar RSUExampleScenario.node[66].nic.mac1609_4 ReceivedBroadcasts 120
scalar RSUExampleScenario.node[66].nic.mac1609_4 SentPackets 34
scalar RSUExampleScenario.node[66].nic.mac1609_4 SentAcknowledgements 0
scalar RSUExampleScenario.node[66].nic.mac1609_4 RetriesExceeded 0
scalar RSUExampleScenario.node[66].nic.mac1609_4 SNIRLostPackets 28
scalar RSUExampleScenario.node[66].nic.mac1609_4 RXTXLostPackets 0
scalar RSUExampleScenario.node[66].nic.mac1609_4 TotalLostPackets 28
scalar RSUExampleScenario.node[66].nic.mac1609_4 DroppedPacketsInMac 0
scalar RSUExampleScenario.node[66].nic.mac1609_4 TooLittleTime 0
scalar RSUExampleScenario.node[66].nic.mac1609_4 TimesIntoBackoff 35
scalar RSUExampleScenario.node[66].nic.mac1609_4 SlotsBackoff 55
scalar RSUExampleScenario.node[66].nic.mac1609_4 NumInternalContention 0
scalar RSUExampleScenario.node[66].nic.mac1609_4 totalBusyTime 0.019474
scalar RSUExampleScenario.node[66].nic.mac1609_4 retriesExceeded:count 0
attr source org_car2x_veins_modules_mac_sigRetriesExceeded
scalar RSUExampleScenario.node[66].nic.mac1609_4 sentAcks:count 0
attr source org_car2x_veins_modules_mac_sigSentAck
scalar RSUExampleScenario.node[66].nic.mac1609_4 sentPackets:count 34
attr source org_car2x_veins_modules_mac_sigSentPacket
scalar RSUExampleScenario.node[66].nic.mac1609_4 collisions:count 0
attr source org_car2x_veins_modules_mac_sigCollision
scalar RSUExampleScenario.node[66].nic.mac1609_4 channelBusy:timeavg 0.00059012121212121
attr source org_car2x_veins_modules_mac_sigChannelBusy
scalar RSUExampleScenario.node[66].veinsmobility startTime 1
scalar RSUExampleScenario.node[66].veinsmobility totalTime 32
scalar RSUExampleScenario.node[66].veinsmobility stopTime 34
scalar RSUExampleScenario.node[66].veinsmobility minSpeed 1.4998549617594
scalar RSUExampleScenario.node[66].veinsmobility maxSpeed 15.327025356816
scalar RSUExampleScenario.node[66].veinsmobility totalDistance 382.69082386237
scalar RSUExampleScenario.node[66].veinsmobility totalCO2Emission 117.95496801922
scalar RSUExampleScenario.node[83].appl generatedWSMs 1
scalar RSUExampleScenario.node[83].appl receivedWSMs 4
scalar RSUExampleScenario.node[83].appl generatedBSMs 33
scalar RSUExampleScenario.node[83].appl receivedBSMs 163
scalar RSUExampleScenario.node[83].appl generatedWSAs 0
scalar RSUExampleScenario.node[83].appl receivedWSAs 0
scalar RSUExampleScenario.node[83].nic.phy80211p busyTime 0.00070957575757576
scalar RSUExampleScenario.node[83].nic.mac1609_4 ReceivedUnicastPackets 0
scalar RSUExampleScenario.node[83].nic.mac1609_4 ReceivedBroadcasts 167
scalar RSUExampleScenario.node[83].nic.mac1609_4 SentPackets 34
scalar RSUExampleScenario.node[83].nic.mac1609_4 SentAcknowledgements 0
scalar RSUExampleScenario.node[83].nic.mac1609_4 RetriesExceeded 0
scalar RSUExampleScenario.node[83].nic.mac1609_4 SNIRLostPackets 52
scalar RSUExampleScenario.node[83].nic.mac1609_4 RXTXLostPackets 0
scalar RSUExampleScenario.node[83].nic.mac1609_4 TotalLostPackets 52
scalar RSUExampleScenario.node[83].nic.mac1609_4 DroppedPacketsInMac 0
scalar RSUExampleScenario.node[83].nic.mac1609_4 TooLittleTime 0
scalar RSUExampleScenario.node[83].nic.mac1609_4 TimesIntoBackoff 67
scalar RSUExampleScenario.node[83].nic.mac1609_4 SlotsBackoff 35
scalar RSUExampleScenario.node[83].nic.mac1609_4 NumInternalContention 0
scalar RSUExampleScenario.node[83].nic.mac1609_4 totalBusyTime 0.026882
scalar RSUExampleScenario.node[83].nic.mac1609_4 retriesExceeded:count 0
attr source org_car2x_veins_modules_mac_sigRetriesExceeded
scalar RSUExampleScenario.node[83].nic.mac1609_4 sentAcks:count 0
attr source org_car2x_veins_modules_mac_sigSentAck
scalar RSUExampleScenario.node[83].nic.mac1609_4 sentPackets:count 34
attr source org_car2x_veins_modules_mac_sigSentPacket
scalar RSUExampleScenario.node[83].nic.mac1609_4 collisions:count 0
attr source org_car2x_veins_modules_mac_sigCollision
scalar RSUExampleScenario.node[83].nic.mac1609_4 channelBusy:timeavg 0.00081460606060606
attr source org_car2x_veins_modules_mac_sigChannelBusy
scalar RSUExampleScenario.node[83].veinsmobility startTime 1
scalar RSUExampleScenario.node[83].veinsmobility totalTime 32
scalar RSUExampleScenario.node[83].veinsmobility stopTime 34
scalar RSUExampleScenario.node[83].veinsmobility minSpeed 1.8865424470045
scalar RSUExampleScenario.node[83].veinsmobility maxSpeed 16.002429733195
scalar RSUExampleScenario.node[83].veinsmobility totalDistance 373.53713735534
scalar RSUExampleScenario.node[83].veinsmobility totalCO2Emission 116.27947891657
scalar RSUExampleScenario.node[41].appl generatedWSMs 1
scalar RSUExampleScenario.node[41].appl receivedWSMs 5
scalar RSUExampleScenario.node[41].appl generatedBSMs 35
scalar RSUExampleScenario.node[41].appl receivedBSMs 238
scalar RSUExampleScenario.node[41].appl generatedWSAs 0
scalar RSUExampleScenario.node[41].appl receivedWSAs 0
scalar RSUExampleScenario.node[41].nic.phy80211p busyTime 0.00088662857142857
scalar RSUExampleScenario.node[41].nic.mac1609_4 ReceivedUnicastPackets 0
scalar RSUExampleScenario.node[41].nic.mac1609_4 ReceivedBroadcasts 243
scalar RSUExampleScenario.node[41].nic.mac1609_4 SentPackets 36
scalar RSUExampleScenario.node[41].nic.mac1609_4 SentAcknowledgements 0
scalar RSUExampleScenario.node[41].nic.mac1609_4 RetriesExceeded 0
scalar RSUExampleScenario.node[41].nic.mac1609_4 SNIRLostPackets 48
scalar RSUExampleScenario.node[41].nic.mac1609_4 RXTXLostPackets 0
scalar RSUExampleScenario.node[41].nic.mac1609_4 TotalLostPackets 48
scalar RSUExampleScenario.node[41].nic.mac1609_4 DroppedPacketsInMac 0
scalar RSUExampleScenario.node[41].nic.mac1609_4 TooLittleTime 0
scalar RSUExampleScenario.node[41].nic.mac1609_4 TimesIntoBackoff 36
scalar RSUExampleScenario.node[41].nic.mac1609_4 SlotsBackoff 47
scalar RSUExampleScenario.node[41].nic.mac1609_4 NumInternalContention 0
scalar RSUExampleScenario.node[41].nic.mac1609_4 totalBusyTime 0.03494
scalar RSUExampleScenario.node[41].nic.mac1609_4 retriesExceeded:count 0
attr source org_car2x_veins_modules_mac_sigRetriesExceeded
scalar RSUExampleScenario.node[41].nic.mac1609_4 sentAcks:count 0
attr source org_car2x_veins_modules_mac_sigSentAck
scalar RSUExampleScenario.node[41].nic.mac1609_4 sentPackets:count 36
attr source org_car2x_veins_modules_mac_sigSentPacket
scalar RSUExampleScenario.node[41].nic.mac1609_4 collisions:count 0
attr source org_car2x_veins_modules_mac_sigCollision
scalar RSUExampleScenario.node[41].nic.mac1609_4 channelBusy:timeavg 0.00099828571428571
attr source org_car2x_veins_modules_mac_sigChannelBusy
scalar RSUExampleScenario.node[41].veinsmobility startTime 1
scalar RSUExampleScenario.node[41].veinsmobility totalTime 34
scalar RSUExampleScenario.node[41].veinsmobility stopTime 36
scalar RSUExampleScenario.node[41].veinsmobility minSpeed 0.1954891670539
scalar RSUExampleScenario.node[41].veinsmobility maxSpeed 12.422144348401
scalar RSUExampleScenario.node[41].veinsmobility totalDistance 283.38792392489
scalar RSUExampleScenario.node[41].veinsmobility totalCO2Emission 112.17461896677
scalar RSUExampleScenario.node[98].appl generatedWSMs 0
scalar RSUExampleScenario.node[98].appl receivedWSMs 0
scalar RSUExampleScenario.node[98].appl generatedBSMs 33
scalar RSUExampleScenario.node[98].appl receivedBSMs 171
scalar RSUExampleScenario.node[98].appl generatedWSAs 0
scalar RSUExampleScenario.node[98].appl receivedWSAs 0
scalar RSUExampleScenario.node[98].nic.phy80211p busyTime 0.00057672727272727
scalar RSUExampleScenario.node[98].nic.mac1609_4 ReceivedUnicastPackets 0
scalar RSUExampleScenario.node[98].nic.mac1609_4 ReceivedBroadcasts 171
scalar RSUExampleScenario.node[98].nic.mac1609_4 SentPackets 33
scalar RSUExampleScenario.node[98].nic.mac1609_4 SentAcknowledgements 0
scalar RSUExampleScenario.node[98].nic.mac1609_4 RetriesExceeded 0
scalar RSUExampleScenario.node[98].nic.mac1609_4 SNIRLostPackets 12
scalar RSUExampleScenario.node[98].nic.mac1609_4 RXTXLostPackets 0
scalar RSUExampleScenario.node[98].nic.mac1609_4 TotalLostPackets 12
scalar RSUExampleScenario.node[98].nic.mac1609_4 DroppedPacketsInMac 0
scalar RSUExampleScenario.node[98].nic.mac1609_4 TooLittleTime 0
scalar RSUExampleScenario.node[98].nic.mac1609_4 TimesIntoBackoff 33
scalar RSUExampleScenario.node[98].nic.mac1609_4 SlotsBackoff 59
scalar RSUExampleScenario.node[98].nic.mac1609_4 NumInternalContention 0
scalar RSUExampleScenario.node[98].nic.mac1609_4 totalBusyTime 0.022497
scalar RSUExampleScenario.node[98].nic.mac1609_4 retriesExceeded:count 0
attr source org_car2x_veins_modules_mac_sigRetriesExceeded
scalar RSUExampleScenario.node[98].nic.mac1609_4 sentAcks:count 0
attr source org_car2x_veins_modules_mac_sigSentAck
scalar RSUExampleScenario.node[98].nic.mac1609_4 sentPackets:count 33
attr source org_car2x_veins_modules_mac_sigSentPacket
scalar RSUExampleScenario.node[98].nic.mac1609_4 collisions:count 0
attr source org_car2x_veins_modules_mac_sigCollision
scalar RSUExampleScenario.node[98].nic.mac1609_4 channelBusy:timeavg 0.00068172727272727
attr source org_car2x_veins_modules_mac_sigChannelBusy
scalar RSUExampleScenario.node[98].veinsmobility startTime 4
scalar RSUExampleScenario.node[98].veinsmobility totalTime 32
scalar RSUExampleScenario.node[98].veinsmobility stopTime 37
scalar RSUExampleScenario.node[98].veinsmobility minSpeed 1.8854387812782
scalar RSUExampleScenario.node[98].veinsmobility maxSpeed 14.216639444839
scalar RSUExampleScenario.node[98].veinsmobility totalDistance 366.90936858795
scalar RSUExampleScenario.node[98].veinsmobility totalCO2Emission 95.17262354104
scalar RSUExampleScenario.node[88].appl generatedWSMs 0
scalar RSUExampleScenario.node[88].appl receivedWSMs 0
scalar RSUExampleScenario.node[88].appl generatedBSMs 36
scalar RSUExampleScenario.node[88].appl receivedBSMs 71
scalar RSUExampleScenario.node[88].appl generatedWSAs 0
scalar RSUExampleScenario.node[88].appl receivedWSAs 0
scalar RSUExampleScenario.node[88].nic.phy80211p busyTime 0.00029177777777778
scalar RSUExampleScenario.node[88].nic.mac1609_4 ReceivedUnicastPackets 0
scalar RSUExampleScenario.node[88].nic.mac1609_4 ReceivedBroadcasts 71
scalar RSUExampleScenario.node[88].nic.mac1609_4 SentPackets 36
scalar RSUExampleScenario.node[88].nic.mac1609_4 SentAcknowledgements 0
scalar RSUExampleScenario.node[88].nic.mac1609_4 RetriesExceeded 0
scalar RSUExampleScenario.node[88].nic.mac1609_4 SNIRLostPackets 30
scalar RSUExampleScenario.node[88].nic.mac1609_4 RXTXLostPackets 0
scalar RSUExampleScenario.node[88].nic.mac1609_4 TotalLostPackets 30
scalar RSUExampleScenario.node[88].nic.mac1609_4 DroppedPacketsInMac 0
scalar RSUExampleScenario.node[88].nic.mac1609_4 TooLittleTime 0
scalar RSUExampleScenario.node[88].nic.mac1609_4 TimesIntoBackoff 36
scalar RSUExampleScenario.node[88].nic.mac1609_4 SlotsBackoff 60
scalar RSUExampleScenario.node[88].nic.mac1609_4 NumInternalContention 0
scalar RSUExampleScenario.node[88].nic.mac1609_4 totalBusyTime 0.014284
scalar RSUExampleScenario.node[88].nic.mac1609_4 retriesExceeded:count 0
attr source org_car2x_veins_modules_mac_sigRetriesExceeded
scalar RSUExampleScenario.node[88].nic.mac1609_4 sentAcks:count 0
attr source org_car2x_veins_modules_mac_sigSentAck
scalar RSUExampleScenario.node[88].nic.mac1609_4 sentPackets:count 36
attr source org_car2x_veins_modules_mac_sigSentPacket
scalar RSUExampleScenario.node[88].nic.mac1609_4 collisions:count 0
attr source org_car2x_veins_modules_mac_sigCollision
scalar RSUExampleScenario.node[88].nic.mac1609_4 channelBusy:timeavg 0.00039677777777778
attr source org_car2x_veins_modules_mac_sigChannelBusy
scalar RSUExampleScenario.node[88].veinsmobility startTime 1
scalar RSUExampleScenario.node[88].veinsmobility totalTime 35
scalar RSUExampleScenario.node[88].veinsmobility stopTime 37
scalar RSUExampleScenario.node[88].veinsmobility minSpeed 2.0152664079564
scalar RSUExampleScenario.node[88].veinsmobility maxSpeed 17.227065495406
scalar RSUExampleScenario.node[88].veinsmobility totalDistance 456.39613859823
scalar RSUExampleScenario.node[88].veinsmobility totalCO2Emission 136.69707891658
scalar RSUExampleScenario.node[44].appl generatedWSMs 1
scalar RSUExampleScenario.node[44].appl receivedWSMs 8
scalar RSUExampleScenario.node[44].appl generatedBSMs 37
scalar RSUExampleScenario.node[44].appl receivedBSMs 223
scalar RSUExampleScenario.node[44].appl generatedWSAs 0
scalar RSUExampleScenario.node[44].appl receivedWSAs 0
scalar RSUExampleScenario.node[44].nic.phy80211p busyTime 0.00074789189189189
scalar RSUExampleScenario.node[44].nic.mac1609_4 ReceivedUnicastPackets 0
scalar RSUExampleScenario.node[44].nic.mac1609_4 ReceivedBroadcasts 231
scalar RSUExampleScenario.node[44].nic.mac1609_4 SentPackets 38
scalar RSUExampleScenario.node[44].nic.mac1609_4 SentAcknowledgements 0
scalar RSUExampleScenario.node[44].nic.mac1609_4 RetriesExceeded 0
scalar RSUExampleScenario.node[44].nic.mac1609_4 SNIRLostPackets 24
scalar RSUExampleScenario.node[44].nic.mac1609_4 RXTXLostPackets 0
scalar RSUExampleScenario.node[44].nic.mac1609_4 TotalLostPackets 24
scalar RSUExampleScenario.node[44].nic.mac1609_4 DroppedPacketsInMac 0
scalar RSUExampleScenario.node[44].nic.mac1609_4 TooLittleTime 0
scalar RSUExampleScenario.node[44].nic.mac1609_4 TimesIntoBackoff 38
scalar RSUExampleScenario.node[44].nic.mac1609_4 SlotsBackoff 59
scalar RSUExampleScenario.node[44].nic.mac1609_4 NumInternalContention 0
scalar RSUExampleScenario.node[44].nic.mac1609_4 totalBusyTime 0.03179
scalar RSUExampleScenario.node[44].nic.mac1609_4 retriesExceeded:count 0
attr source org_car2x_veins_modules_mac_sigRetriesExceeded
scalar RSUExampleScenario.node[44].nic.mac1609_4 sentAcks:count 0
attr source org_car2x_veins_modules_mac_sigSentAck
scalar RSUExampleScenario.node[44].nic.mac1609_4 sentPackets:count 38
attr source org_car2x_veins_modules_mac_sigSentPacket
scalar RSUExampleScenario.node[44].nic.mac1609_4 collisions:count 0
attr source org_car2x_veins_modules_mac_sigCollision
scalar RSUExampleScenario.node[44].nic.mac1609_4 channelBusy:timeavg 0.00085918918918919
attr source org_car2x_veins_modules_mac_sigChannelBusy
scalar RSUExampleScenario.node[44].veinsmobility startTime 1
scalar RSUExampleScenario.node[44].veinsmobility totalTime 36
scalar RSUExampleScenario.node[44].veinsmobility stopTime 38
scalar RSUExampleScenario.node[44].veinsmobility minSpeed 2.1130978513975
scalar RSUExampleScenario.node[44].veinsmobility maxSpeed 13.17591865798
scalar RSUExampleScenario.node[44].veinsmobility totalDistance 376.57282521809
scalar RSUExampleScenario.node[44].veinsmobility totalCO2Emission 126.15511992328
scalar RSUExampleScenario.node[38].appl generatedWSMs 0
scalar RSUExampleScenario.node[38].appl receivedWSMs 0
scalar RSUExampleScenario.node[38].appl generatedBSMs 38
scalar RSUExampleScenario.node[38].appl receivedBSMs 187
scalar RSUExampleScenario.node[38].appl generatedWSAs 0
scalar RSUExampleScenario.node[38].appl receivedWSAs 0
scalar RSUExampleScenario.node[38].nic.phy80211p busyTime 0.00063221052631579
scalar RSUExampleScenario.node[38].nic.mac1609_4 ReceivedUnicastPackets 0
scalar RSUExampleScenario.node[38].nic.mac1609_4 ReceivedBroadcasts 187
scalar RSUExampleScenario.node[38].nic.mac1609_4 SentPackets 38
scalar RSUExampleScenario.node[38].nic.mac1609_4 SentAcknowledgements 0
scalar RSUExampleScenario.node[38].nic.mac1609_4 RetriesExceeded 0
scalar RSUExampleScenario.node[38].nic.mac1609_4 SNIRLostPackets 44
scalar RSUExampleScenario.node[38].nic.mac1609_4 RXTXLostPackets 0
scalar RSUExampleScenario.node[38].nic.mac1609_4 TotalLostPackets 44
scalar RSUExampleScenario.node[38].nic.mac1609_4 DroppedPacketsInMac 0
scalar RSUExampleScenario.node[38].nic.mac1609_4 TooLittleTime 0
scalar RSUExampleScenario.node[38].nic.mac1609_4 TimesIntoBackoff 38
scalar RSUExampleScenario.node[38].nic.mac1609_4 SlotsBackoff 64
scalar RSUExampleScenario.node[38].nic.mac1609_4 NumInternalContention 0
scalar RSUExampleScenario.node[38].nic.mac1609_4 totalBusyTime 0.027702
scalar RSUExampleScenario.node[38].nic.mac1609_4 retriesExceeded:count 0
attr source org_car2x_veins_modules_mac_sigRetriesExceeded
scalar RSUExampleScenario.node[38].nic.mac1609_4 sentAcks:count 0
attr source org_car2x_veins_modules_mac_sigSentAck
scalar RSUExampleScenario.node[38].nic.mac1609_4 sentPackets:count 38
attr source org_car2x_veins_modules_mac_sigSentPacket
scalar RSUExampleScenario.node[38].nic.mac1609_4 collisions:count 0
attr source org_car2x_veins_modules_mac_sigCollision
scalar RSUExampleScenario.node[38].nic.mac1609_4 channelBusy:timeavg 0.000729
attr source org_car2x_veins_modules_mac_sigChannelBusy
scalar RSUExampleScenario.node[38].veinsmobility startTime 1
scalar RSUExampleScenario.node[38].veinsmobility totalTime 37
scalar RSUExampleScenario.node[38].veinsmobility stopTime 39
scalar RSUExampleScenario.node[38].veinsmobility minSpeed 1.4015385301784
scalar RSUExampleScenario.node[38].veinsmobility maxSpeed 11.696365843792
scalar RSUExampleScenario.node[38].veinsmobility totalDistance 372.43018004203
scalar RSUExampleScenario.node[38].veinsmobility totalCO2Emission 98.856287346025
scalar RSUExampleScenario.node[47].appl generatedWSMs 1
scalar RSUExampleScenario.node[47].appl receivedWSMs 8
scalar RSUExampleScenario.node[47].appl generatedBSMs 37
scalar RSUExampleScenario.node[47].appl receivedBSMs 182
scalar RSUExampleScenario.node[47].appl generatedWSAs 0
scalar RSUExampleScenario.node[47].appl receivedWSAs 0
scalar RSUExampleScenario.node[47].nic.phy80211p busyTime 0.00060715789473684
scalar RSUExampleScenario.node[47].nic.mac1609_4 ReceivedUnicastPackets 0
scalar RSUExampleScenario.node[47].nic.mac1609_4 ReceivedBroadcasts 190
scalar RSUExampleScenario.node[47].nic.mac1609_4 SentPackets 38
scalar RSUExampleScenario.node[47].nic.mac1609_4 SentAcknowledgements 0
scalar RSUExampleScenario.node[47].nic.mac1609_4 RetriesExceeded 0
scalar RSUExampleScenario.node[47].nic.mac1609_4 SNIRLostPackets 22
scalar RSUExampleScenario.node[47].nic.mac1609_4 RXTXLostPackets 0
scalar RSUExampleScenario.node[47].nic.mac1609_4 TotalLostPackets 22
scalar RSUExampleScenario.node[47].nic.mac1609_4 DroppedPacketsInMac 0
scalar RSUExampleScenario.node[47].nic.mac1609_4 TooLittleTime 0
scalar RSUExampleScenario.node[47].nic.mac1609_4 TimesIntoBackoff 38
scalar RSUExampleScenario.node[47].nic.mac1609_4 SlotsBackoff 54
scalar RSUExampleScenario.node[47].nic.mac1609_4 NumInternalContention 0
scalar RSUExampleScenario.node[47].nic.mac1609_4 totalBusyTime 0.02719
scalar RSUExampleScenario.node[47].nic.mac1609_4 retriesExceeded:count 0
attr source org_car2x_veins_modules_mac_sigRetriesExceeded
scalar RSUExampleScenario.node[47].nic.mac1609_4 sentAcks:count 0
attr source org_car2x_veins_modules_mac_sigSentAck
scalar RSUExampleScenario.node[47].nic.mac1609_4 sentPackets:count 38
attr source org_car2x_veins_modules_mac_sigSentPacket
scalar RSUExampleScenario.node[47].nic.mac1609_4 collisions:count 0
attr source org_car2x_veins_modules_mac_sigCollision
scalar RSUExampleScenario.node[47].nic.mac1609_4 channelBusy:timeavg 0.00071552631578947
attr source org_car2x_veins_modules_mac_sigChannelBusy
scalar RSUExampleScenario.node[47].veinsmobility startTime 1
scalar RSUExampleScenario.node[47].veinsmobility totalTime 37
scalar RSUExampleScenario.node[47].veinsmobility stopTime 39
scalar RSUExampleScenario.node[47].veinsmobility minSpeed 0.74122555584425
scalar RSUExampleScenario.node[47].veinsmobility maxSpeed 15.157906872169
scalar RSUExampleScenario.node[47].veinsmobility totalDistance 367.88155892463
scalar RSUExampleScenario.node[47].veinsmobility totalCO2Emission 145.85225608636
scalar RSUExampleScenario.node[78].appl generatedWSMs 1
scalar RSUExampleScenario.node[78].appl receivedWSMs 5
scalar RSUExampleScenario.node[78].appl generatedBSMs 37
scalar RSUExampleScenario.node[78].appl receivedBSMs 190
scalar RSUExampleScenario.node[78].appl generatedWSAs 0
scalar RSUExampleScenario.node[78].appl receivedWSAs 0
scalar RSUExampleScenario.node[78].nic.phy80211p busyTime 0.00062168421052632
scalar RSUExampleScenario.node[78].nic.mac1609_4 ReceivedUnicastPackets 0
scalar RSUExampleScenario.node[78].nic.mac1609_4 ReceivedBroadcasts 195
scalar RSUExampleScenario.node[78].nic.mac1609_4 SentPackets 38
scalar RSUExampleScenario.node[78].nic.mac1609_4 SentAcknowledgements 0
scalar RSUExampleScenario.node[78].nic.mac1609_4 RetriesExceeded 0
scalar RSUExampleScenario.node[78].nic.mac1609_4 SNIRLostPackets 26
scalar RSUExampleScenario.node[78].nic.mac1609_4 RXTXLostPackets 0
scalar RSUExampleScenario.node[78].nic.mac1609_4 TotalLostPackets 26
scalar RSUExampleScenario.node[78].nic.mac1609_4 DroppedPacketsInMac 0
scalar RSUExampleScenario.node[78].nic.mac1609_4 TooLittleTime 0
scalar RSUExampleScenario.node[78].nic.mac1609_4 TimesIntoBackoff 38
scalar RSUExampleScenario.node[78].nic.mac1609_4 SlotsBackoff 69
scalar RSUExampleScenario.node[78].nic.mac1609_4 NumInternalContention 0
scalar RSUExampleScenario.node[78].nic.mac1609_4 totalBusyTime 0.027742
scalar RSUExampleScenario.node[78].nic.mac1609_4 retriesExceeded:count 0
attr source org_car2x_veins_modules_mac_sigRetriesExceeded
scalar RSUExampleScenario.node[78].nic.mac1609_4 sentAcks:count 0
attr source org_car2x_veins_modules_mac_sigSentAck
scalar RSUExampleScenario.node[78].nic.mac1609_4 sentPackets:count 38
attr source org_car2x_veins_modules_mac_sigSentPacket
scalar RSUExampleScenario.node[78].nic.mac1609_4 collisions:count 0
attr source org_car2x_veins_modules_mac_sigCollision
scalar RSUExampleScenario.node[78].nic.mac1609_4 channelBusy:timeavg 0.00073005263157895
attr source org_car2x_veins_modules_mac_sigChannelBusy
scalar RSUExampleScenario.node[78].veinsmobility startTime 1
scalar RSUExampleScenario.node[78].veinsmobility totalTime 37
scalar RSUExampleScenario.node[78].veinsmobility stopTime 39
scalar RSUExampleScenario.node[78].veinsmobility minSpeed 2.0045285689412
scalar RSUExampleScenario.node[78].veinsmobility maxSpeed 12.823934142613
scalar RSUExampleScenario.node[78].veinsmobility totalDistance 374.78800634948
scalar RSUExampleScenario.node[78].veinsmobility totalCO2Emission 130.30596458003
scalar RSUExampleScenario.node[12].appl generatedWSMs 1
scalar RSUExampleScenario.node[12].appl receivedWSMs 8
scalar RSUExampleScenario.node[12].appl generatedBSMs 42
scalar RSUExampleScenario.node[12].appl receivedBSMs 192
scalar RSUExampleScenario.node[12].appl generatedWSAs 0
scalar RSUExampleScenario.node[12].appl receivedWSAs 0
scalar RSUExampleScenario.node[12].nic.phy80211p busyTime 0.00061238095238095
scalar RSUExampleScenario.node[12].nic.mac1609_4 ReceivedUnicastPackets 0
scalar RSUExampleScenario.node[12].nic.mac1609_4 ReceivedBroadcasts 200
scalar RSUExampleScenario.node[12].nic.mac1609_4 SentPackets 43
scalar RSUExampleScenario.node[12].nic.mac1609_4 SentAcknowledgements 0
scalar RSUExampleScenario.node[12].nic.mac1609_4 RetriesExceeded 0
scalar RSUExampleScenario.node[12].nic.mac1609_4 SNIRLostPackets 35
scalar RSUExampleScenario.node[12].nic.mac1609_4 RXTXLostPackets 0
scalar RSUExampleScenario.node[12].nic.mac1609_4 TotalLostPackets 35
scalar RSUExampleScenario.node[12].nic.mac1609_4 DroppedPacketsInMac 0
scalar RSUExampleScenario.node[12].nic.mac1609_4 TooLittleTime 0
scalar RSUExampleScenario.node[12].nic.mac1609_4 TimesIntoBackoff 43
scalar RSUExampleScenario.node[12].nic.mac1609_4 SlotsBackoff 57
scalar RSUExampleScenario.node[12].nic.mac1609_4 NumInternalContention 0
scalar RSUExampleScenario.node[12].nic.mac1609_4 totalBusyTime 0.030131
scalar RSUExampleScenario.node[12].nic.mac1609_4 retriesExceeded:count 0
attr source org_car2x_veins_modules_mac_sigRetriesExceeded
scalar RSUExampleScenario.node[12].nic.mac1609_4 sentAcks:count 0
attr source org_car2x_veins_modules_mac_sigSentAck
scalar RSUExampleScenario.node[12].nic.mac1609_4 sentPackets:count 43
attr source org_car2x_veins_modules_mac_sigSentPacket
scalar RSUExampleScenario.node[12].nic.mac1609_4 collisions:count 0
attr source org_car2x_veins_modules_mac_sigCollision
scalar RSUExampleScenario.node[12].nic.mac1609_4 channelBusy:timeavg 0.00071740476190476
attr source org_car2x_veins_modules_mac_sigChannelBusy
scalar RSUExampleScenario.node[12].veinsmobility startTime 1
scalar RSUExampleScenario.node[12].veinsmobility totalTime 41
scalar RSUExampleScenario.node[12].veinsmobility stopTime 43
scalar RSUExampleScenario.node[12].veinsmobility minSpeed 2.450429067295
scalar RSUExampleScenario.node[12].veinsmobility maxSpeed 14.221368780179
scalar RSUExampleScenario.node[12].veinsmobility totalDistance 480.27709810235
scalar RSUExampleScenario.node[12].veinsmobility totalCO2Emission 142.38422896248
scalar RSUExampleScenario.node[13].appl generatedWSMs 1
scalar RSUExampleScenario.node[13].appl receivedWSMs 5
scalar RSUExampleScenario.node[13].appl generatedBSMs 43
scalar RSUExampleScenario.node[13].appl receivedBSMs 176
scalar RSUExampleScenario.node[13].appl generatedWSAs 0
scalar RSUExampleScenario.node[13].appl receivedWSAs 0
scalar RSUExampleScenario.node[13].nic.phy80211p busyTime 0.00059404651162791
scalar RSUExampleScenario.node[13].nic.mac1609_4 ReceivedUnicastPackets 0
scalar RSUExampleScenario.node[13].nic.mac1609_4 ReceivedBroadcasts 181
scalar RSUExampleScenario.node[13].nic.mac1609_4 SentPackets 44
scalar RSUExampleScenario.node[13].nic.mac1609_4 SentAcknowledgements 0
scalar RSUExampleScenario.node[13].nic.mac1609_4 RetriesExceeded 0
scalar RSUExampleScenario.node[13].nic.mac1609_4 SNIRLostPackets 56
scalar RSUExampleScenario.node[13].nic.mac1609_4 RXTXLostPackets 0
scalar RSUExampleScenario.node[13].nic.mac1609_4 TotalLostPackets 56
scalar RSUExampleScenario.node[13].nic.mac1609_4 DroppedPacketsInMac 0
scalar RSUExampleScenario.node[13].nic.mac1609_4 TooLittleTime 0
scalar RSUExampleScenario.node[13].nic.mac1609_4 TimesIntoBackoff 45
scalar RSUExampleScenario.node[13].nic.mac1609_4 SlotsBackoff 76
scalar RSUExampleScenario.node[13].nic.mac1609_4 NumInternalContention 0
scalar RSUExampleScenario.node[13].nic.mac1609_4 totalBusyTime 0.030188
scalar RSUExampleScenario.node[13].nic.mac1609_4 retriesExceeded:count 0
attr source org_car2x_veins_modules_mac_sigRetriesExceeded
scalar RSUExampleScenario.node[13].nic.mac1609_4 sentAcks:count 0
attr source org_car2x_veins_modules_mac_sigSentAck
scalar RSUExampleScenario.node[13].nic.mac1609_4 sentPackets:count 44
attr source org_car2x_veins_modules_mac_sigSentPacket
scalar RSUExampleScenario.node[13].nic.mac1609_4 collisions:count 0
attr source org_car2x_veins_modules_mac_sigCollision
scalar RSUExampleScenario.node[13].nic.mac1609_4 channelBusy:timeavg 0.00070204651162791
attr source org_car2x_veins_modules_mac_sigChannelBusy
scalar RSUExampleScenario.node[13].veinsmobility startTime 1
scalar RSUExampleScenario.node[13].veinsmobility totalTime 42
scalar RSUExampleScenario.node[13].veinsmobility stopTime 44
scalar RSUExampleScenario.node[13].veinsmobility minSpeed 1.9570178572088
scalar RSUExampleScenario.node[13].veinsmobility maxSpeed 16.414329796635
scalar RSUExampleScenario.node[13].veinsmobility totalDistance 479.90810114845
scalar RSUExampleScenario.node[13].veinsmobility totalCO2Emission 189.46098505571
scalar RSUExampleScenario.node[69].appl generatedWSMs 1
scalar RSUExampleScenario.node[69].appl receivedWSMs 6
scalar RSUExampleScenario.node[69].appl generatedBSMs 44
scalar RSUExampleScenario.node[69].appl receivedBSMs 140
scalar RSUExampleScenario.node[69].appl generatedWSAs 0
scalar RSUExampleScenario.node[69].appl receivedWSAs 0
scalar RSUExampleScenario.node[69].nic.phy80211p busyTime 0.00045527272727273
scalar RSUExampleScenario.node[69].nic.mac1609_4 ReceivedUnicastPackets 0
scalar RSUExampleScenario.node[69].nic.mac1609_4 ReceivedBroadcasts 146
scalar RSUExampleScenario.node[69].nic.mac1609_4 SentPackets 45
scalar RSUExampleScenario.node[69].nic.mac1609_4 SentAcknowledgements 0
scalar RSUExampleScenario.node[69].nic.mac1609_4 RetriesExceeded 0
scalar RSUExampleScenario.node[69].nic.mac1609_4 SNIRLostPackets 38
scalar RSUExampleScenario.node[69].nic.mac1609_4 RXTXLostPackets 0
scalar RSUExampleScenario.node[69].nic.mac1609_4 TotalLostPackets 38
scalar RSUExampleScenario.node[69].nic.mac1609_4 DroppedPacketsInMac 0
scalar RSUExampleScenario.node[69].nic.mac1609_4 TooLittleTime 0
scalar RSUExampleScenario.node[69].nic.mac1609_4 TimesIntoBackoff 52
scalar RSUExampleScenario.node[69].nic.mac1609_4 SlotsBackoff 75
scalar RSUExampleScenario.node[69].nic.mac1609_4 NumInternalContention 0
scalar RSUExampleScenario.node[69].nic.mac1609_4 totalBusyTime 0.024885
scalar RSUExampleScenario.node[69].nic.mac1609_4 retriesExceeded:count 0
attr source org_car2x_veins_modules_mac_sigRetriesExceeded
scalar RSUExampleScenario.node[69].nic.mac1609_4 sentAcks:count 0
attr source org_car2x_veins_modules_mac_sigSentAck
scalar RSUExampleScenario.node[69].nic.mac1609_4 sentPackets:count 45
attr source org_car2x_veins_modules_mac_sigSentPacket
scalar RSUExampleScenario.node[69].nic.mac1609_4 collisions:count 0
attr source org_car2x_veins_modules_mac_sigCollision
scalar RSUExampleScenario.node[69].nic.mac1609_4 channelBusy:timeavg 0.00056556818181818
attr source org_car2x_veins_modules_mac_sigChannelBusy
scalar RSUExampleScenario.node[69].veinsmobility startTime 1
scalar RSUExampleScenario.node[69].veinsmobility totalTime 43
scalar RSUExampleScenario.node[69].veinsmobility stopTime 45
scalar RSUExampleScenario.node[69].veinsmobility minSpeed 1.0139493904861
scalar RSUExampleScenario.node[69].veinsmobility maxSpeed 14.637643135277
scalar RSUExampleScenario.node[69].veinsmobility totalDistance 473.11999413982
scalar RSUExampleScenario.node[69].veinsmobility totalCO2Emission 151.87485922203
scalar RSUExampleScenario.node[92].appl generatedWSMs 1
scalar RSUExampleScenario.node[92].appl receivedWSMs 4
scalar RSUExampleScenario.node[92].appl generatedBSMs 41
scalar RSUExampleScenario.node[92].appl receivedBSMs 123
scalar RSUExampleScenario.node[92].appl generatedWSAs 0
scalar RSUExampleScenario.node[92].appl receivedWSAs 0
scalar RSUExampleScenario.node[92].nic.phy80211p busyTime 0.00038029268292683
scalar RSUExampleScenario.node[92].nic.mac1609_4 ReceivedUnicastPackets 0
scalar RSUExampleScenario.node[92].nic.mac1609_4 ReceivedBroadcasts 127
scalar RSUExampleScenario.node[92].nic.mac1609_4 SentPackets 42
scalar RSUExampleScenario.node[92].nic.mac1609_4 SentAcknowledgements 0
scalar RSUExampleScenario.node[92].nic.mac1609_4 RetriesExceeded 0
scalar RSUExampleScenario.node[92].nic.mac1609_4 SNIRLostPackets 18
scalar RSUExampleScenario.node[92].nic.mac1609_4 RXTXLostPackets 0
scalar RSUExampleScenario.node[92].nic.mac1609_4 TotalLostPackets 18
scalar RSUExampleScenario.node[92].nic.mac1609_4 DroppedPacketsInMac 0
scalar RSUExampleScenario.node[92].nic.mac1609_4 TooLittleTime 0
scalar RSUExampleScenario.node[92].nic.mac1609_4 TimesIntoBackoff 43
scalar RSUExampleScenario.node[92].nic.mac1609_4 SlotsBackoff 57
scalar RSUExampleScenario.node[92].nic.mac1609_4 NumInternalContention 0
scalar RSUExampleScenario.node[92].nic.mac1609_4 totalBusyTime 0.02013
scalar RSUExampleScenario.node[92].nic.mac1609_4 retriesExceeded:count 0
attr source org_car2x_veins_modules_mac_sigRetriesExceeded
scalar RSUExampleScenario.node[92].nic.mac1609_4 sentAcks:count 0
attr source org_car2x_veins_modules_mac_sigSentAck
scalar RSUExampleScenario.node[92].nic.mac1609_4 sentPackets:count 42
attr source org_car2x_veins_modules_mac_sigSentPacket
scalar RSUExampleScenario.node[92].nic.mac1609_4 collisions:count 0
attr source org_car2x_veins_modules_mac_sigCollision
scalar RSUExampleScenario.node[92].nic.mac1609_4 channelBusy:timeavg 0.0004909756097561
attr source org_car2x_veins_modules_mac_sigChannelBusy
scalar RSUExampleScenario.node[92].veinsmobility startTime 4
scalar RSUExampleScenario.node[92].veinsmobility totalTime 40
scalar RSUExampleScenario.node[92].veinsmobility stopTime 45
scalar RSUExampleScenario.node[92].veinsmobility minSpeed 2.0844450560166
scalar RSUExampleScenario.node[92].veinsmobility maxSpeed 15.360397400731
scalar RSUExampleScenario.node[92].veinsmobility totalDistance 463.00074230294
scalar RSUExampleScenario.node[92].veinsmobility totalCO2Emission 156.56960177671
scalar RSUExampleScenario.node[97].appl generatedWSMs 1
scalar RSUExampleScenario.node[97].appl receivedWSMs 5
scalar RSUExampleScenario.node[97].appl generatedBSMs 42
scalar RSUExampleScenario.node[97].appl receivedBSMs 211
scalar RSUExampleScenario.node[97].appl generatedWSAs 0
scalar RSUExampleScenario.node[97].appl receivedWSAs 0
scalar RSUExampleScenario.node[97].nic.phy80211p busyTime 0.00065657142857143
scalar RSUExampleScenario.node[97].nic.mac1609_4 ReceivedUnicastPackets 0
scalar RSUExampleScenario.node[97].nic.mac1609_4 ReceivedBroadcasts 216
scalar RSUExampleScenario.node[97].nic.mac1609_4 SentPackets 43
scalar RSUExampleScenario.node[97].nic.mac1609_4 SentAcknowledgements 0
scalar RSUExampleScenario.node[97].nic.mac1609_4 RetriesExceeded 0
scalar RSUExampleScenario.node[97].nic.mac1609_4 SNIRLostPackets 43
scalar RSUExampleScenario.node[97].nic.mac1609_4 RXTXLostPackets 0
scalar RSUExampleScenario.node[97].nic.mac1609_4 TotalLostPackets 43
scalar RSUExampleScenario.node[97].nic.mac1609_4 DroppedPacketsInMac 0
scalar RSUExampleScenario.node[97].nic.mac1609_4 TooLittleTime 0
scalar RSUExampleScenario.node[97].nic.mac1609_4 TimesIntoBackoff 43
scalar RSUExampleScenario.node[97].nic.mac1609_4 SlotsBackoff 76
scalar RSUExampleScenario.node[97].nic.mac1609_4 NumInternalContention 0
scalar RSUExampleScenario.node[97].nic.mac1609_4 totalBusyTime 0.032219
scalar RSUExampleScenario.node[97].nic.mac1609_4 retriesExceeded:count 0
attr source org_car2x_veins_modules_mac_sigRetriesExceeded
scalar RSUExampleScenario.node[97].nic.mac1609_4 sentAcks:count 0
attr source org_car2x_veins_modules_mac_sigSentAck
scalar RSUExampleScenario.node[97].nic.mac1609_4 sentPackets:count 43
attr source org_car2x_veins_modules_mac_sigSentPacket
scalar RSUExampleScenario.node[97].nic.mac1609_4 collisions:count 0
attr source org_car2x_veins_modules_mac_sigCollision
scalar RSUExampleScenario.node[97].nic.mac1609_4 channelBusy:timeavg 0.00076711904761905
attr source org_car2x_veins_modules_mac_sigChannelBusy
scalar RSUExampleScenario.node[97].veinsmobility startTime 4
scalar RSUExampleScenario.node[97].veinsmobility totalTime 41
scalar RSUExampleScenario.node[97].veinsmobility stopTime 46
scalar RSUExampleScenario.node[97].veinsmobility minSpeed 2.4794851154555
scalar RSUExampleScenario.node[97].veinsmobility maxSpeed 15.105339951414
scalar RSUExampleScenario.node[97].veinsmobility totalDistance 470.4655918968
scalar RSUExampleScenario.node[97].veinsmobility totalCO2Emission 154.25301263488
scalar RSUExampleScenario.node[81].appl generatedWSMs 0
scalar RSUExampleScenario.node[81].appl receivedWSMs 0
scalar RSUExampleScenario.node[81].appl generatedBSMs 44
scalar RSUExampleScenario.node[81].appl receivedBSMs 66
scalar RSUExampleScenario.node[81].appl generatedWSAs 0
scalar RSUExampleScenario.node[81].appl receivedWSAs 0
scalar RSUExampleScenario.node[81].nic.phy80211p busyTime 0.00021724444444444
scalar RSUExampleScenario.node[81].nic.mac1609_4 ReceivedUnicastPackets 0
scalar RSUExampleScenario.node[81].nic.mac1609_4 ReceivedBroadcasts 66
scalar RSUExampleScenario.node[81].nic.mac1609_4 SentPackets 44
scalar RSUExampleScenario.node[81].nic.mac1609_4 SentAcknowledgements 0
scalar RSUExampleScenario.node[81].nic.mac1609_4 RetriesExceeded 0
scalar RSUExampleScenario.node[81].nic.mac1609_4 SNIRLostPackets 28
scalar RSUExampleScenario.node[81].nic.mac1609_4 RXTXLostPackets 0
scalar RSUExampleScenario.node[81].nic.mac1609_4 TotalLostPackets 28
scalar RSUExampleScenario.node[81].nic.mac1609_4 DroppedPacketsInMac 0
scalar RSUExampleScenario.node[81].nic.mac1609_4 TooLittleTime 0
scalar RSUExampleScenario.node[81].nic.mac1609_4 TimesIntoBackoff 44
scalar RSUExampleScenario.node[81].nic.mac1609_4 SlotsBackoff 66
scalar RSUExampleScenario.node[81].nic.mac1609_4 NumInternalContention 0
scalar RSUExampleScenario.node[81].nic.mac1609_4 totalBusyTime 0.014396
scalar RSUExampleScenario.node[81].nic.mac1609_4 retriesExceeded:count 0
attr source org_car2x_veins_modules_mac_sigRetriesExceeded
scalar RSUExampleScenario.node[81].nic.mac1609_4 sentAcks:count 0
attr source org_car2x_veins_modules_mac_sigSentAck
scalar RSUExampleScenario.node[81].nic.mac1609_4 sentPackets:count 44
attr source org_car2x_veins_modules_mac_sigSentPacket
scalar RSUExampleScenario.node[81].nic.mac1609_4 collisions:count 0
attr source org_car2x_veins_modules_mac_sigCollision
scalar RSUExampleScenario.node[81].nic.mac1609_4 channelBusy:timeavg 0.00031991111111111
attr source org_car2x_veins_modules_mac_sigChannelBusy
scalar RSUExampleScenario.node[81].veinsmobility startTime 1
scalar RSUExampleScenario.node[81].veinsmobility totalTime 44
scalar RSUExampleScenario.node[81].veinsmobility stopTime 46
scalar RSUExampleScenario.node[81].veinsmobility minSpeed 1.7627893261844
scalar RSUExampleScenario.node[81].veinsmobility maxSpeed 12.546922732499
scalar RSUExampleScenario.node[81].veinsmobility totalDistance 466.8735017635
scalar RSUExampleScenario.node[81].veinsmobility totalCO2Emission 129.53990408225
scalar RSUExampleScenario.node[85].appl generatedWSMs 1
scalar RSUExampleScenario.node[85].appl receivedWSMs 4
scalar RSUExampleScenario.node[85].appl generatedBSMs 47
scalar RSUExampleScenario.node[85].appl receivedBSMs 215
scalar RSUExampleScenario.node[85].appl generatedWSAs 0
scalar RSUExampleScenario.node[85].appl receivedWSAs 0
scalar RSUExampleScenario.node[85].nic.phy80211p busyTime 0.00061821276595745
scalar RSUExampleScenario.node[85].nic.mac1609_4 ReceivedUnicastPackets 0
scalar RSUExampleScenario.node[85].nic.mac1609_4 ReceivedBroadcasts 219
scalar RSUExampleScenario.node[85].nic.mac1609_4 SentPackets 48
scalar RSUExampleScenario.node[85].nic.mac1609_4 SentAcknowledgements 0
scalar RSUExampleScenario.node[85].nic.mac1609_4 RetriesExceeded 0
scalar RSUExampleScenario.node[85].nic.mac1609_4 SNIRLostPackets 53
scalar RSUExampleScenario.node[85].nic.mac1609_4 RXTXLostPackets 0
scalar RSUExampleScenario.node[85].nic.mac1609_4 TotalLostPackets 53
scalar RSUExampleScenario.node[85].nic.mac1609_4 DroppedPacketsInMac 0
scalar RSUExampleScenario.node[85].nic.mac1609_4 TooLittleTime 0
scalar RSUExampleScenario.node[85].nic.mac1609_4 TimesIntoBackoff 49
scalar RSUExampleScenario.node[85].nic.mac1609_4 SlotsBackoff 68
scalar RSUExampleScenario.node[85].nic.mac1609_4 NumInternalContention 0
scalar RSUExampleScenario.node[85].nic.mac1609_4 totalBusyTime 0.034224
scalar RSUExampleScenario.node[85].nic.mac1609_4 retriesExceeded:count 0
attr source org_car2x_veins_modules_mac_sigRetriesExceeded
scalar RSUExampleScenario.node[85].nic.mac1609_4 sentAcks:count 0
attr source org_car2x_veins_modules_mac_sigSentAck
scalar RSUExampleScenario.node[85].nic.mac1609_4 sentPackets:count 48
attr source org_car2x_veins_modules_mac_sigSentPacket
scalar RSUExampleScenario.node[85].nic.mac1609_4 collisions:count 0
attr source org_car2x_veins_modules_mac_sigCollision
scalar RSUExampleScenario.node[85].nic.mac1609_4 channelBusy:timeavg 0.00072817021276596
attr source org_car2x_veins_modules_mac_sigChannelBusy
scalar RSUExampleScenario.node[85].veinsmobility startTime 1
scalar RSUExampleScenario.node[85].veinsmobility totalTime 46
scalar RSUExampleScenario.node[85].veinsmobility stopTime 48
scalar RSUExampleScenario.node[85].veinsmobility minSpeed 1.4771120201563
scalar RSUExampleScenario.node[85].veinsmobility maxSpeed 14.020298941436
scalar RSUExampleScenario.node[85].veinsmobility totalDistance 559.7185047158
scalar RSUExampleScenario.node[85].veinsmobility totalCO2Emission 137.29587200983
scalar RSUExampleScenario.node[87].appl generatedWSMs 1
scalar RSUExampleScenario.node[87].appl receivedWSMs 5
scalar RSUExampleScenario.node[87].appl generatedBSMs 46
scalar RSUExampleScenario.node[87].appl receivedBSMs 289
scalar RSUExampleScenario.node[87].appl generatedWSAs 0
scalar RSUExampleScenario.node[87].appl receivedWSAs 0
scalar RSUExampleScenario.node[87].nic.phy80211p busyTime 0.000824
scalar RSUExampleScenario.node[87].nic.mac1609_4 ReceivedUnicastPackets 0
scalar RSUExampleScenario.node[87].nic.mac1609_4 ReceivedBroadcasts 294
scalar RSUExampleScenario.node[87].nic.mac1609_4 SentPackets 47
scalar RSUExampleScenario.node[87].nic.mac1609_4 SentAcknowledgements 0
scalar RSUExampleScenario.node[87].nic.mac1609_4 RetriesExceeded 0
scalar RSUExampleScenario.node[87].nic.mac1609_4 SNIRLostPackets 71
scalar RSUExampleScenario.node[87].nic.mac1609_4 RXTXLostPackets 0
scalar RSUExampleScenario.node[87].nic.mac1609_4 TotalLostPackets 71
scalar RSUExampleScenario.node[87].nic.mac1609_4 DroppedPacketsInMac 0
scalar RSUExampleScenario.node[87].nic.mac1609_4 TooLittleTime 0
scalar RSUExampleScenario.node[87].nic.mac1609_4 TimesIntoBackoff 93
scalar RSUExampleScenario.node[87].nic.mac1609_4 SlotsBackoff 71
scalar RSUExampleScenario.node[87].nic.mac1609_4 NumInternalContention 0
scalar RSUExampleScenario.node[87].nic.mac1609_4 totalBusyTime 0.043479
scalar RSUExampleScenario.node[87].nic.mac1609_4 retriesExceeded:count 0
attr source org_car2x_veins_modules_mac_sigRetriesExceeded
scalar RSUExampleScenario.node[87].nic.mac1609_4 sentAcks:count 0
attr source org_car2x_veins_modules_mac_sigSentAck
scalar RSUExampleScenario.node[87].nic.mac1609_4 sentPackets:count 47
attr source org_car2x_veins_modules_mac_sigSentPacket
scalar RSUExampleScenario.node[87].nic.mac1609_4 collisions:count 0
attr source org_car2x_veins_modules_mac_sigCollision
scalar RSUExampleScenario.node[87].nic.mac1609_4 channelBusy:timeavg 0.00092508510638298
attr source org_car2x_veins_modules_mac_sigChannelBusy
scalar RSUExampleScenario.node[87].veinsmobility startTime 1
scalar RSUExampleScenario.node[87].veinsmobility totalTime 46
scalar RSUExampleScenario.node[87].veinsmobility stopTime 48
scalar RSUExampleScenario.node[87].veinsmobility minSpeed 2.1996845621383
scalar RSUExampleScenario.node[87].veinsmobility maxSpeed 12.183333265639
scalar RSUExampleScenario.node[87].veinsmobility totalDistance 458.23817847033
scalar RSUExampleScenario.node[87].veinsmobility totalCO2Emission 138.07895262467
scalar RSUExampleScenario.node[53].appl generatedWSMs 1
scalar RSUExampleScenario.node[53].appl receivedWSMs 3
scalar RSUExampleScenario.node[53].appl generatedBSMs 47
scalar RSUExampleScenario.node[53].appl receivedBSMs 261
scalar RSUExampleScenario.node[53].appl generatedWSAs 0
scalar RSUExampleScenario.node[53].appl receivedWSAs 0
scalar RSUExampleScenario.node[53].nic.phy80211p busyTime 0.00073316666666667
scalar RSUExampleScenario.node[53].nic.mac1609_4 ReceivedUnicastPackets 0
scalar RSUExampleScenario.node[53].nic.mac1609_4 ReceivedBroadcasts 264
scalar RSUExampleScenario.node[53].nic.mac1609_4 SentPackets 48
scalar RSUExampleScenario.node[53].nic.mac1609_4 SentAcknowledgements 0
scalar RSUExampleScenario.node[53].nic.mac1609_4 RetriesExceeded 0
scalar RSUExampleScenario.node[53].nic.mac1609_4 SNIRLostPackets 67
scalar RSUExampleScenario.node[53].nic.mac1609_4 RXTXLostPackets 0
scalar RSUExampleScenario.node[53].nic.mac1609_4 TotalLostPackets 67
scalar RSUExampleScenario.node[53].nic.mac1609_4 DroppedPacketsInMac 0
scalar RSUExampleScenario.node[53].nic.mac1609_4 TooLittleTime 0
scalar RSUExampleScenario.node[53].nic.mac1609_4 TimesIntoBackoff 49
scalar RSUExampleScenario.node[53].nic.mac1609_4 SlotsBackoff 68
scalar RSUExampleScenario.node[53].nic.mac1609_4 NumInternalContention 0
scalar RSUExampleScenario.node[53].nic.mac1609_4 totalBusyTime 0.04036
scalar RSUExampleScenario.node[53].nic.mac1609_4 retriesExceeded:count 0
attr source org_car2x_veins_modules_mac_sigRetriesExceeded
scalar RSUExampleScenario.node[53].nic.mac1609_4 sentAcks:count 0
attr source org_car2x_veins_modules_mac_sigSentAck
scalar RSUExampleScenario.node[53].nic.mac1609_4 sentPackets:count 48
attr source org_car2x_veins_modules_mac_sigSentPacket
scalar RSUExampleScenario.node[53].nic.mac1609_4 collisions:count 0
attr source org_car2x_veins_modules_mac_sigCollision
scalar RSUExampleScenario.node[53].nic.mac1609_4 channelBusy:timeavg 0.00084083333333333
attr source org_car2x_veins_modules_mac_sigChannelBusy
scalar RSUExampleScenario.node[53].veinsmobility startTime 1
scalar RSUExampleScenario.node[53].veinsmobility totalTime 47
scalar RSUExampleScenario.node[53].veinsmobility stopTime 49
scalar RSUExampleScenario.node[53].veinsmobility minSpeed 1.8950087713078
scalar RSUExampleScenario.node[53].veinsmobility maxSpeed 16.324571761098
scalar RSUExampleScenario.node[53].veinsmobility totalDistance 554.18219672925
scalar RSUExampleScenario.node[53].veinsmobility totalCO2Emission 200.9648354376
scalar RSUExampleScenario.node[75].appl generatedWSMs 1
scalar RSUExampleScenario.node[75].appl receivedWSMs 5
scalar RSUExampleScenario.node[75].appl generatedBSMs 47
scalar RSUExampleScenario.node[75].appl receivedBSMs 257
scalar RSUExampleScenario.node[75].appl generatedWSAs 0
scalar RSUExampleScenario.node[75].appl receivedWSAs 0
scalar RSUExampleScenario.node[75].nic.phy80211p busyTime 0.00072816666666667
scalar RSUExampleScenario.node[75].nic.mac1609_4 ReceivedUnicastPackets 0
scalar RSUExampleScenario.node[75].nic.mac1609_4 ReceivedBroadcasts 262
scalar RSUExampleScenario.node[75].nic.mac1609_4 SentPackets 48
scalar RSUExampleScenario.node[75].nic.mac1609_4 SentAcknowledgements 0
scalar RSUExampleScenario.node[75].nic.mac1609_4 RetriesExceeded 0
scalar RSUExampleScenario.node[75].nic.mac1609_4 SNIRLostPackets 63
scalar RSUExampleScenario.node[75].nic.mac1609_4 RXTXLostPackets 0
scalar RSUExampleScenario.node[75].nic.mac1609_4 TotalLostPackets 63
scalar RSUExampleScenario.node[75].nic.mac1609_4 DroppedPacketsInMac 0
scalar RSUExampleScenario.node[75].nic.mac1609_4 TooLittleTime 0
scalar RSUExampleScenario.node[75].nic.mac1609_4 TimesIntoBackoff 48
scalar RSUExampleScenario.node[75].nic.mac1609_4 SlotsBackoff 74
scalar RSUExampleScenario.node[75].nic.mac1609_4 NumInternalContention 0
scalar RSUExampleScenario.node[75].nic.mac1609_4 totalBusyTime 0.04012
scalar RSUExampleScenario.node[75].nic.mac1609_4 retriesExceeded:count 0
attr source org_car2x_veins_modules_mac_sigRetriesExceeded
scalar RSUExampleScenario.node[75].nic.mac1609_4 sentAcks:count 0
attr source org_car2x_veins_modules_mac_sigSentAck
scalar RSUExampleScenario.node[75].nic.mac1609_4 sentPackets:count 48
attr source org_car2x_veins_modules_mac_sigSentPacket
scalar RSUExampleScenario.node[75].nic.mac1609_4 collisions:count 0
attr source org_car2x_veins_modules_mac_sigCollision
scalar RSUExampleScenario.node[75].nic.mac1609_4 channelBusy:timeavg 0.00083583333333333
attr source org_car2x_veins_modules_mac_sigChannelBusy
scalar RSUExampleScenario.node[75].veinsmobility startTime 1
scalar RSUExampleScenario.node[75].veinsmobility totalTime 47
scalar RSUExampleScenario.node[75].veinsmobility stopTime 49
scalar RSUExampleScenario.node[75].veinsmobility minSpeed 1.5929533046437
scalar RSUExampleScenario.node[75].veinsmobility maxSpeed 14.117995571045
scalar RSUExampleScenario.node[75].veinsmobility totalDistance 469.20277856929
scalar RSUExampleScenario.node[75].veinsmobility totalCO2Emission 186.507652033
scalar RSUExampleScenario.node[6].appl generatedWSMs 1
scalar RSUExampleScenario.node[6].appl receivedWSMs 2
scalar RSUExampleScenario.node[6].appl generatedBSMs 50
scalar RSUExampleScenario.node[6].appl receivedBSMs 248
scalar RSUExampleScenario.node[6].appl generatedWSAs 0
scalar RSUExampleScenario.node[6].appl receivedWSAs 0
scalar RSUExampleScenario.node[6].nic.phy80211p busyTime 0.00066704
scalar RSUExampleScenario.node[6].nic.mac1609_4 ReceivedUnicastPackets 0
scalar RSUExampleScenario.node[6].nic.mac1609_4 ReceivedBroadcasts 250
scalar RSUExampleScenario.node[6].nic.mac1609_4 SentPackets 51
scalar RSUExampleScenario.node[6].nic.mac1609_4 SentAcknowledgements 0
scalar RSUExampleScenario.node[6].nic.mac1609_4 RetriesExceeded 0
scalar RSUExampleScenario.node[6].nic.mac1609_4 SNIRLostPackets 67
scalar RSUExampleScenario.node[6].nic.mac1609_4 RXTXLostPackets 0
scalar RSUExampleScenario.node[6].nic.mac1609_4 TotalLostPackets 67
scalar RSUExampleScenario.node[6].nic.mac1609_4 DroppedPacketsInMac 0
scalar RSUExampleScenario.node[6].nic.mac1609_4 TooLittleTime 0
scalar RSUExampleScenario.node[6].nic.mac1609_4 TimesIntoBackoff 51
scalar RSUExampleScenario.node[6].nic.mac1609_4 SlotsBackoff 68
scalar RSUExampleScenario.node[6].nic.mac1609_4 NumInternalContention 0
scalar RSUExampleScenario.node[6].nic.mac1609_4 totalBusyTime 0.038835
scalar RSUExampleScenario.node[6].nic.mac1609_4 retriesExceeded:count 0
attr source org_car2x_veins_modules_mac_sigRetriesExceeded
scalar RSUExampleScenario.node[6].nic.mac1609_4 sentAcks:count 0
attr source org_car2x_veins_modules_mac_sigSentAck
scalar RSUExampleScenario.node[6].nic.mac1609_4 sentPackets:count 51
attr source org_car2x_veins_modules_mac_sigSentPacket
scalar RSUExampleScenario.node[6].nic.mac1609_4 collisions:count 0
attr source org_car2x_veins_modules_mac_sigCollision
scalar RSUExampleScenario.node[6].nic.mac1609_4 channelBusy:timeavg 0.0007767
attr source org_car2x_veins_modules_mac_sigChannelBusy
scalar RSUExampleScenario.node[6].veinsmobility startTime 1
scalar RSUExampleScenario.node[6].veinsmobility totalTime 49
scalar RSUExampleScenario.node[6].veinsmobility stopTime 51
scalar RSUExampleScenario.node[6].veinsmobility minSpeed 0.33526233213201
scalar RSUExampleScenario.node[6].veinsmobility maxSpeed 14.2153092627
scalar RSUExampleScenario.node[6].veinsmobility totalDistance 474.68712616628
scalar RSUExampleScenario.node[6].veinsmobility totalCO2Emission 177.03889905035
scalar RSUExampleScenario.node[29].appl generatedWSMs 1
scalar RSUExampleScenario.node[29].appl receivedWSMs 6
scalar RSUExampleScenario.node[29].appl generatedBSMs 51
scalar RSUExampleScenario.node[29].appl receivedBSMs 268
scalar RSUExampleScenario.node[29].appl generatedWSAs 0
scalar RSUExampleScenario.node[29].appl receivedWSAs 0
scalar RSUExampleScenario.node[29].nic.phy80211p busyTime 0.00067466666666667
scalar RSUExampleScenario.node[29].nic.mac1609_4 ReceivedUnicastPackets 0
scalar RSUExampleScenario.node[29].nic.mac1609_4 ReceivedBroadcasts 274
scalar RSUExampleScenario.node[29].nic.mac1609_4 SentPackets 52
scalar RSUExampleScenario.node[29].nic.mac1609_4 SentAcknowledgements 0
scalar RSUExampleScenario.node[29].nic.mac1609_4 RetriesExceeded 0
scalar RSUExampleScenario.node[29].nic.mac1609_4 SNIRLostPackets 47
scalar RSUExampleScenario.node[29].nic.mac1609_4 RXTXLostPackets 0
scalar RSUExampleScenario.node[29].nic.mac1609_4 TotalLostPackets 47
scalar RSUExampleScenario.node[29].nic.mac1609_4 DroppedPacketsInMac 0
scalar RSUExampleScenario.node[29].nic.mac1609_4 TooLittleTime 0
scalar RSUExampleScenario.node[29].nic.mac1609_4 TimesIntoBackoff 52
scalar RSUExampleScenario.node[29].nic.mac1609_4 SlotsBackoff 68
scalar RSUExampleScenario.node[29].nic.mac1609_4 NumInternalContention 0
scalar RSUExampleScenario.node[29].nic.mac1609_4 totalBusyTime 0.039764
scalar RSUExampleScenario.node[29].nic.mac1609_4 retriesExceeded:count 0
attr source org_car2x_veins_modules_mac_sigRetriesExceeded
scalar RSUExampleScenario.node[29].nic.mac1609_4 sentAcks:count 0
attr source org_car2x_veins_modules_mac_sigSentAck
scalar RSUExampleScenario.node[29].nic.mac1609_4 sentPackets:count 52
attr source org_car2x_veins_modules_mac_sigSentPacket
scalar RSUExampleScenario.node[29].nic.mac1609_4 collisions:count 0
attr source org_car2x_veins_modules_mac_sigCollision
scalar RSUExampleScenario.node[29].nic.mac1609_4 channelBusy:timeavg 0.0007796862745098
attr source org_car2x_veins_modules_mac_sigChannelBusy
scalar RSUExampleScenario.node[29].veinsmobility startTime 1
scalar RSUExampleScenario.node[29].veinsmobility totalTime 50
scalar RSUExampleScenario.node[29].veinsmobility stopTime 52
scalar RSUExampleScenario.node[29].veinsmobility minSpeed 1.3036597494269
scalar RSUExampleScenario.node[29].veinsmobility maxSpeed 13.113253504128
scalar RSUExampleScenario.node[29].veinsmobility totalDistance 561.28654330298
scalar RSUExampleScenario.node[29].veinsmobility totalCO2Emission 137.67432704537
scalar RSUExampleScenario.node[36].appl generatedWSMs 1
scalar RSUExampleScenario.node[36].appl receivedWSMs 6
scalar RSUExampleScenario.node[36].appl generatedBSMs 53
scalar RSUExampleScenario.node[36].appl receivedBSMs 298
scalar RSUExampleScenario.node[36].appl generatedWSAs 0
scalar RSUExampleScenario.node[36].appl receivedWSAs 0
scalar RSUExampleScenario.node[36].nic.phy80211p busyTime 0.000712
scalar RSUExampleScenario.node[36].nic.mac1609_4 ReceivedUnicastPackets 0
scalar RSUExampleScenario.node[36].nic.mac1609_4 ReceivedBroadcasts 304
scalar RSUExampleScenario.node[36].nic.mac1609_4 SentPackets 54
scalar RSUExampleScenario.node[36].nic.mac1609_4 SentAcknowledgements 0
scalar RSUExampleScenario.node[36].nic.mac1609_4 RetriesExceeded 0
scalar RSUExampleScenario.node[36].nic.mac1609_4 SNIRLostPackets 49
scalar RSUExampleScenario.node[36].nic.mac1609_4 RXTXLostPackets 0
scalar RSUExampleScenario.node[36].nic.mac1609_4 TotalLostPackets 49
scalar RSUExampleScenario.node[36].nic.mac1609_4 DroppedPacketsInMac 0
scalar RSUExampleScenario.node[36].nic.mac1609_4 TooLittleTime 0
scalar RSUExampleScenario.node[36].nic.mac1609_4 TimesIntoBackoff 54
scalar RSUExampleScenario.node[36].nic.mac1609_4 SlotsBackoff 94
scalar RSUExampleScenario.node[36].nic.mac1609_4 NumInternalContention 0
scalar RSUExampleScenario.node[36].nic.mac1609_4 totalBusyTime 0.043534
scalar RSUExampleScenario.node[36].nic.mac1609_4 retriesExceeded:count 0
attr source org_car2x_veins_modules_mac_sigRetriesExceeded
scalar RSUExampleScenario.node[36].nic.mac1609_4 sentAcks:count 0
attr source org_car2x_veins_modules_mac_sigSentAck
scalar RSUExampleScenario.node[36].nic.mac1609_4 sentPackets:count 54
attr source org_car2x_veins_modules_mac_sigSentPacket
scalar RSUExampleScenario.node[36].nic.mac1609_4 collisions:count 0
attr source org_car2x_veins_modules_mac_sigCollision
scalar RSUExampleScenario.node[36].nic.mac1609_4 channelBusy:timeavg 0.00082139622641509
attr source org_car2x_veins_modules_mac_sigChannelBusy
scalar RSUExampleScenario.node[36].veinsmobility startTime 1
scalar RSUExampleScenario.node[36].veinsmobility totalTime 52
scalar RSUExampleScenario.node[36].veinsmobility stopTime 54
scalar RSUExampleScenario.node[36].veinsmobility minSpeed 0.024054946581963
scalar RSUExampleScenario.node[36].veinsmobility maxSpeed 12.220652026509
scalar RSUExampleScenario.node[36].veinsmobility totalDistance 481.09171444656
scalar RSUExampleScenario.node[36].veinsmobility totalCO2Emission 154.8849112996
scalar RSUExampleScenario.node[77].appl generatedWSMs 0
scalar RSUExampleScenario.node[77].appl receivedWSMs 0
scalar RSUExampleScenario.node[77].appl generatedBSMs 53
scalar RSUExampleScenario.node[77].appl receivedBSMs 144
scalar RSUExampleScenario.node[77].appl generatedWSAs 0
scalar RSUExampleScenario.node[77].appl receivedWSAs 0
scalar RSUExampleScenario.node[77].nic.phy80211p busyTime 0.00034535849056604
scalar RSUExampleScenario.node[77].nic.mac1609_4 ReceivedUnicastPackets 0
scalar RSUExampleScenario.node[77].nic.mac1609_4 ReceivedBroadcasts 144
scalar RSUExampleScenario.node[77].nic.mac1609_4 SentPackets 53
scalar RSUExampleScenario.node[77].nic.mac1609_4 SentAcknowledgements 0
scalar RSUExampleScenario.node[77].nic.mac1609_4 RetriesExceeded 0
scalar RSUExampleScenario.node[77].nic.mac1609_4 SNIRLostPackets 32
scalar RSUExampleScenario.node[77].nic.mac1609_4 RXTXLostPackets 0
scalar RSUExampleScenario.node[77].nic.mac1609_4 TotalLostPackets 32
scalar RSUExampleScenario.node[77].nic.mac1609_4 DroppedPacketsInMac 0
scalar RSUExampleScenario.node[77].nic.mac1609_4 TooLittleTime 0
scalar RSUExampleScenario.node[77].nic.mac1609_4 TimesIntoBackoff 53
scalar RSUExampleScenario.node[77].nic.mac1609_4 SlotsBackoff 82
scalar RSUExampleScenario.node[77].nic.mac1609_4 NumInternalContention 0
scalar RSUExampleScenario.node[77].nic.mac1609_4 totalBusyTime 0.023869
scalar RSUExampleScenario.node[77].nic.mac1609_4 retriesExceeded:count 0
attr source org_car2x_veins_modules_mac_sigRetriesExceeded
scalar RSUExampleScenario.node[77].nic.mac1609_4 sentAcks:count 0
attr source org_car2x_veins_modules_mac_sigSentAck
scalar RSUExampleScenario.node[77].nic.mac1609_4 sentPackets:count 53
attr source org_car2x_veins_modules_mac_sigSentPacket
scalar RSUExampleScenario.node[77].nic.mac1609_4 collisions:count 0
attr source org_car2x_veins_modules_mac_sigCollision
scalar RSUExampleScenario.node[77].nic.mac1609_4 channelBusy:timeavg 0.00045035849056604
attr source org_car2x_veins_modules_mac_sigChannelBusy
scalar RSUExampleScenario.node[77].veinsmobility startTime 1
scalar RSUExampleScenario.node[77].veinsmobility totalTime 52
scalar RSUExampleScenario.node[77].veinsmobility stopTime 54
scalar RSUExampleScenario.node[77].veinsmobility minSpeed 1.7431896411348
scalar RSUExampleScenario.node[77].veinsmobility maxSpeed 14.361449622012
scalar RSUExampleScenario.node[77].veinsmobility totalDistance 670.69347443318
scalar RSUExampleScenario.node[77].veinsmobility totalCO2Emission 134.26409670549
scalar RSUExampleScenario.node[14].appl generatedWSMs 1
scalar RSUExampleScenario.node[14].appl receivedWSMs 4
scalar RSUExampleScenario.node[14].appl generatedBSMs 54
scalar RSUExampleScenario.node[14].appl receivedBSMs 145
scalar RSUExampleScenario.node[14].appl generatedWSAs 0
scalar RSUExampleScenario.node[14].appl receivedWSAs 0
scalar RSUExampleScenario.node[14].nic.phy80211p busyTime 0.00036843636363636
scalar RSUExampleScenario.node[14].nic.mac1609_4 ReceivedUnicastPackets 0
scalar RSUExampleScenario.node[14].nic.mac1609_4 ReceivedBroadcasts 149
scalar RSUExampleScenario.node[14].nic.mac1609_4 SentPackets 55
scalar RSUExampleScenario.node[14].nic.mac1609_4 SentAcknowledgements 0
scalar RSUExampleScenario.node[14].nic.mac1609_4 RetriesExceeded 0
scalar RSUExampleScenario.node[14].nic.mac1609_4 SNIRLostPackets 36
scalar RSUExampleScenario.node[14].nic.mac1609_4 RXTXLostPackets 0
scalar RSUExampleScenario.node[14].nic.mac1609_4 TotalLostPackets 36
scalar RSUExampleScenario.node[14].nic.mac1609_4 DroppedPacketsInMac 0
scalar RSUExampleScenario.node[14].nic.mac1609_4 TooLittleTime 0
scalar RSUExampleScenario.node[14].nic.mac1609_4 TimesIntoBackoff 55
scalar RSUExampleScenario.node[14].nic.mac1609_4 SlotsBackoff 75
scalar RSUExampleScenario.node[14].nic.mac1609_4 NumInternalContention 0
scalar RSUExampleScenario.node[14].nic.mac1609_4 totalBusyTime 0.026167
scalar RSUExampleScenario.node[14].nic.mac1609_4 retriesExceeded:count 0
attr source org_car2x_veins_modules_mac_sigRetriesExceeded
scalar RSUExampleScenario.node[14].nic.mac1609_4 sentAcks:count 0
attr source org_car2x_veins_modules_mac_sigSentAck
scalar RSUExampleScenario.node[14].nic.mac1609_4 sentPackets:count 55
attr source org_car2x_veins_modules_mac_sigSentPacket
scalar RSUExampleScenario.node[14].nic.mac1609_4 collisions:count 0
attr source org_car2x_veins_modules_mac_sigCollision
scalar RSUExampleScenario.node[14].nic.mac1609_4 channelBusy:timeavg 0.00047576363636364
attr source org_car2x_veins_modules_mac_sigChannelBusy
scalar RSUExampleScenario.node[14].veinsmobility startTime 1
scalar RSUExampleScenario.node[14].veinsmobility totalTime 54
scalar RSUExampleScenario.node[14].veinsmobility stopTime 56
scalar RSUExampleScenario.node[14].veinsmobility minSpeed 1.5147052048706
scalar RSUExampleScenario.node[14].veinsmobility maxSpeed 12.283898762996
scalar RSUExampleScenario.node[14].veinsmobility totalDistance 565.42064959915
scalar RSUExampleScenario.node[14].veinsmobility totalCO2Emission 149.87268281801
scalar RSUExampleScenario.node[70].appl generatedWSMs 1
scalar RSUExampleScenario.node[70].appl receivedWSMs 5
scalar RSUExampleScenario.node[70].appl generatedBSMs 55
scalar RSUExampleScenario.node[70].appl receivedBSMs 215
scalar RSUExampleScenario.node[70].appl generatedWSAs 0
scalar RSUExampleScenario.node[70].appl receivedWSAs 0
scalar RSUExampleScenario.node[70].nic.phy80211p busyTime 0.00052450909090909
scalar RSUExampleScenario.node[70].nic.mac1609_4 ReceivedUnicastPackets 0
scalar RSUExampleScenario.node[70].nic.mac1609_4 ReceivedBroadcasts 220
scalar RSUExampleScenario.node[70].nic.mac1609_4 SentPackets 56
scalar RSUExampleScenario.node[70].nic.mac1609_4 SentAcknowledgements 0
scalar RSUExampleScenario.node[70].nic.mac1609_4 RetriesExceeded 0
scalar RSUExampleScenario.node[70].nic.mac1609_4 SNIRLostPackets 50
scalar RSUExampleScenario.node[70].nic.mac1609_4 RXTXLostPackets 0
scalar RSUExampleScenario.node[70].nic.mac1609_4 TotalLostPackets 50
scalar RSUExampleScenario.node[70].nic.mac1609_4 DroppedPacketsInMac 0
scalar RSUExampleScenario.node[70].nic.mac1609_4 TooLittleTime 0
scalar RSUExampleScenario.node[70].nic.mac1609_4 TimesIntoBackoff 57
scalar RSUExampleScenario.node[70].nic.mac1609_4 SlotsBackoff 80
scalar RSUExampleScenario.node[70].nic.mac1609_4 NumInternalContention 0
scalar RSUExampleScenario.node[70].nic.mac1609_4 totalBusyTime 0.034501037409
scalar RSUExampleScenario.node[70].nic.mac1609_4 retriesExceeded:count 0
attr source org_car2x_veins_modules_mac_sigRetriesExceeded
scalar RSUExampleScenario.node[70].nic.mac1609_4 sentAcks:count 0
attr source org_car2x_veins_modules_mac_sigSentAck
scalar RSUExampleScenario.node[70].nic.mac1609_4 sentPackets:count 56
attr source org_car2x_veins_modules_mac_sigSentPacket
scalar RSUExampleScenario.node[70].nic.mac1609_4 collisions:count 0
attr source org_car2x_veins_modules_mac_sigCollision
scalar RSUExampleScenario.node[70].nic.mac1609_4 channelBusy:timeavg 0.00062729158925455
attr source org_car2x_veins_modules_mac_sigChannelBusy
scalar RSUExampleScenario.node[70].veinsmobility startTime 1
scalar RSUExampleScenario.node[70].veinsmobility totalTime 54
scalar RSUExampleScenario.node[70].veinsmobility stopTime 56
scalar RSUExampleScenario.node[70].veinsmobility minSpeed 1.3519775079098
scalar RSUExampleScenario.node[70].veinsmobility maxSpeed 14.612545475754
scalar RSUExampleScenario.node[70].veinsmobility totalDistance 652.6193677579
scalar RSUExampleScenario.node[70].veinsmobility totalCO2Emission 177.68357155061
scalar RSUExampleScenario.node[89].appl generatedWSMs 1
scalar RSUExampleScenario.node[89].appl receivedWSMs 4
scalar RSUExampleScenario.node[89].appl generatedBSMs 53
scalar RSUExampleScenario.node[89].appl receivedBSMs 186
scalar RSUExampleScenario.node[89].appl generatedWSAs 0
scalar RSUExampleScenario.node[89].appl receivedWSAs 0
scalar RSUExampleScenario.node[89].nic.phy80211p busyTime 0.00044966037735849
scalar RSUExampleScenario.node[89].nic.mac1609_4 ReceivedUnicastPackets 0
scalar RSUExampleScenario.node[89].nic.mac1609_4 ReceivedBroadcasts 190
scalar RSUExampleScenario.node[89].nic.mac1609_4 SentPackets 54
scalar RSUExampleScenario.node[89].nic.mac1609_4 SentAcknowledgements 0
scalar RSUExampleScenario.node[89].nic.mac1609_4 RetriesExceeded 0
scalar RSUExampleScenario.node[89].nic.mac1609_4 SNIRLostPackets 33
scalar RSUExampleScenario.node[89].nic.mac1609_4 RXTXLostPackets 0
scalar RSUExampleScenario.node[89].nic.mac1609_4 TotalLostPackets 33
scalar RSUExampleScenario.node[89].nic.mac1609_4 DroppedPacketsInMac 0
scalar RSUExampleScenario.node[89].nic.mac1609_4 TooLittleTime 0
scalar RSUExampleScenario.node[89].nic.mac1609_4 TimesIntoBackoff 55
scalar RSUExampleScenario.node[89].nic.mac1609_4 SlotsBackoff 84
scalar RSUExampleScenario.node[89].nic.mac1609_4 NumInternalContention 0
scalar RSUExampleScenario.node[89].nic.mac1609_4 totalBusyTime 0.029398
scalar RSUExampleScenario.node[89].nic.mac1609_4 retriesExceeded:count 0
attr source org_car2x_veins_modules_mac_sigRetriesExceeded
scalar RSUExampleScenario.node[89].nic.mac1609_4 sentAcks:count 0
attr source org_car2x_veins_modules_mac_sigSentAck
scalar RSUExampleScenario.node[89].nic.mac1609_4 sentPackets:count 54
attr source org_car2x_veins_modules_mac_sigSentPacket
scalar RSUExampleScenario.node[89].nic.mac1609_4 collisions:count 0
attr source org_car2x_veins_modules_mac_sigCollision
scalar RSUExampleScenario.node[89].nic.mac1609_4 channelBusy:timeavg 0.00055467924528302
attr source org_car2x_veins_modules_mac_sigChannelBusy
scalar RSUExampleScenario.node[89].veinsmobility startTime 4
scalar RSUExampleScenario.node[89].veinsmobility totalTime 52
scalar RSUExampleScenario.node[89].veinsmobility stopTime 57
scalar RSUExampleScenario.node[89].veinsmobility minSpeed 1.8642573473975
scalar RSUExampleScenario.node[89].veinsmobility maxSpeed 10.399101536842
scalar RSUExampleScenario.node[89].veinsmobility totalDistance 471.00851839421
scalar RSUExampleScenario.node[89].veinsmobility totalCO2Emission 123.75375965692
scalar RSUExampleScenario.node[54].appl generatedWSMs 1
scalar RSUExampleScenario.node[54].appl receivedWSMs 2
scalar RSUExampleScenario.node[54].appl generatedBSMs 57
scalar RSUExampleScenario.node[54].appl receivedBSMs 159
scalar RSUExampleScenario.node[54].appl generatedWSAs 0
scalar RSUExampleScenario.node[54].appl receivedWSAs 0
scalar RSUExampleScenario.node[54].nic.phy80211p busyTime 0.00036617543859649
scalar RSUExampleScenario.node[54].nic.mac1609_4 ReceivedUnicastPackets 0
scalar RSUExampleScenario.node[54].nic.mac1609_4 ReceivedBroadcasts 161
scalar RSUExampleScenario.node[54].nic.mac1609_4 SentPackets 58
scalar RSUExampleScenario.node[54].nic.mac1609_4 SentAcknowledgements 0
scalar RSUExampleScenario.node[54].nic.mac1609_4 RetriesExceeded 0
scalar RSUExampleScenario.node[54].nic.mac1609_4 SNIRLostPackets 36
scalar RSUExampleScenario.node[54].nic.mac1609_4 RXTXLostPackets 0
scalar RSUExampleScenario.node[54].nic.mac1609_4 TotalLostPackets 36
scalar RSUExampleScenario.node[54].nic.mac1609_4 DroppedPacketsInMac 0
scalar RSUExampleScenario.node[54].nic.mac1609_4 TooLittleTime 0
scalar RSUExampleScenario.node[54].nic.mac1609_4 TimesIntoBackoff 58
scalar RSUExampleScenario.node[54].nic.mac1609_4 SlotsBackoff 88
scalar RSUExampleScenario.node[54].nic.mac1609_4 NumInternalContention 0
scalar RSUExampleScenario.node[54].nic.mac1609_4 totalBusyTime 0.026986
scalar RSUExampleScenario.node[54].nic.mac1609_4 retriesExceeded:count 0
attr source org_car2x_veins_modules_mac_sigRetriesExceeded
scalar RSUExampleScenario.node[54].nic.mac1609_4 sentAcks:count 0
attr source org_car2x_veins_modules_mac_sigSentAck
scalar RSUExampleScenario.node[54].nic.mac1609_4 sentPackets:count 58
attr source org_car2x_veins_modules_mac_sigSentPacket
scalar RSUExampleScenario.node[54].nic.mac1609_4 collisions:count 0
attr source org_car2x_veins_modules_mac_sigCollision
scalar RSUExampleScenario.node[54].nic.mac1609_4 channelBusy:timeavg 0.00047343859649123
attr source org_car2x_veins_modules_mac_sigChannelBusy
scalar RSUExampleScenario.node[54].veinsmobility startTime 1
scalar RSUExampleScenario.node[54].veinsmobility totalTime 56
scalar RSUExampleScenario.node[54].veinsmobility stopTime 58
scalar RSUExampleScenario.node[54].veinsmobility minSpeed 1.5972831639228
scalar RSUExampleScenario.node[54].veinsmobility maxSpeed 14.170681929305
scalar RSUExampleScenario.node[54].veinsmobility totalDistance 671.9528239449
scalar RSUExampleScenario.node[54].veinsmobility totalCO2Emission 185.14321557916
scalar RSUExampleScenario.node[62].appl generatedWSMs 1
scalar RSUExampleScenario.node[62].appl receivedWSMs 8
scalar RSUExampleScenario.node[62].appl generatedBSMs 57
scalar RSUExampleScenario.node[62].appl receivedBSMs 317
scalar RSUExampleScenario.node[62].appl generatedWSAs 0
scalar RSUExampleScenario.node[62].appl receivedWSAs 0
scalar RSUExampleScenario.node[62].nic.phy80211p busyTime 0.0007719298245614
scalar RSUExampleScenario.node[62].nic.mac1609_4 ReceivedUnicastPackets 0
scalar RSUExampleScenario.node[62].nic.mac1609_4 ReceivedBroadcasts 325
scalar RSUExampleScenario.node[62].nic.mac1609_4 SentPackets 58
scalar RSUExampleScenario.node[62].nic.mac1609_4 SentAcknowledgements 0
[...]
scalar RSUExampleScenario.node[24].appl generatedWSAs 0
scalar RSUExampleScenario.node[24].appl receivedWSAs 0
scalar RSUExampleScenario.node[24].nic.phy80211p busyTime 0.0005768275862069
scalar RSUExampleScenario.node[24].nic.mac1609_4 ReceivedUnicastPackets 0
scalar RSUExampleScenario.node[24].nic.mac1609_4 ReceivedBroadcasts 538
scalar RSUExampleScenario.node[24].nic.mac1609_4 SentPackets 117
scalar RSUExampleScenario.node[24].nic.mac1609_4 SentAcknowledgements 0
scalar RSUExampleScenario.node[24].nic.mac1609_4 RetriesExceeded 0
scalar RSUExampleScenario.node[24].nic.mac1609_4 SNIRLostPackets 98
scalar RSUExampleScenario.node[24].nic.mac1609_4 RXTXLostPackets 0
scalar RSUExampleScenario.node[24].nic.mac1609_4 TotalLostPackets 98
scalar RSUExampleScenario.node[24].nic.mac1609_4 DroppedPacketsInMac 0
scalar RSUExampleScenario.node[24].nic.mac1609_4 TooLittleTime 0
scalar RSUExampleScenario.node[24].nic.mac1609_4 TimesIntoBackoff 118
scalar RSUExampleScenario.node[24].nic.mac1609_4 SlotsBackoff 180
scalar RSUExampleScenario.node[24].nic.mac1609_4 NumInternalContention 0
scalar RSUExampleScenario.node[24].nic.mac1609_4 totalBusyTime 0.079325
scalar RSUExampleScenario.node[24].nic.mac1609_4 retriesExceeded:count 0
attr source org_car2x_veins_modules_mac_sigRetriesExceeded
scalar RSUExampleScenario.node[24].nic.mac1609_4 sentAcks:count 0
attr source org_car2x_veins_modules_mac_sigSentAck
scalar RSUExampleScenario.node[24].nic.mac1609_4 sentPackets:count 117
attr source org_car2x_veins_modules_mac_sigSentPacket
scalar RSUExampleScenario.node[24].nic.mac1609_4 collisions:count 0
attr source org_car2x_veins_modules_mac_sigCollision
scalar RSUExampleScenario.node[24].nic.mac1609_4 channelBusy:timeavg 0.00068383620689656
attr source org_car2x_veins_modules_mac_sigChannelBusy
scalar RSUExampleScenario.node[24].veinsmobility startTime 1
scalar RSUExampleScenario.node[24].veinsmobility totalTime 115
scalar RSUExampleScenario.node[24].veinsmobility stopTime 117
scalar RSUExampleScenario.node[24].veinsmobility minSpeed 0.016155436038099
scalar RSUExampleScenario.node[24].veinsmobility maxSpeed 11.699465260064
scalar RSUExampleScenario.node[24].veinsmobility totalDistance 1069.8333047619
scalar RSUExampleScenario.node[24].veinsmobility totalCO2Emission 309.7448533871
scalar RSUExampleScenario.node[59].appl generatedWSMs 1
scalar RSUExampleScenario.node[59].appl receivedWSMs 4
scalar RSUExampleScenario.node[59].appl generatedBSMs 118
scalar RSUExampleScenario.node[59].appl receivedBSMs 272
scalar RSUExampleScenario.node[59].appl generatedWSAs 0
scalar RSUExampleScenario.node[59].appl receivedWSAs 0
scalar RSUExampleScenario.node[59].nic.phy80211p busyTime 0.00028989830508475
scalar RSUExampleScenario.node[59].nic.mac1609_4 ReceivedUnicastPackets 0
scalar RSUExampleScenario.node[59].nic.mac1609_4 ReceivedBroadcasts 276
scalar RSUExampleScenario.node[59].nic.mac1609_4 SentPackets 119
scalar RSUExampleScenario.node[59].nic.mac1609_4 SentAcknowledgements 0
scalar RSUExampleScenario.node[59].nic.mac1609_4 RetriesExceeded 0
scalar RSUExampleScenario.node[59].nic.mac1609_4 SNIRLostPackets 48
scalar RSUExampleScenario.node[59].nic.mac1609_4 RXTXLostPackets 0
scalar RSUExampleScenario.node[59].nic.mac1609_4 TotalLostPackets 48
scalar RSUExampleScenario.node[59].nic.mac1609_4 DroppedPacketsInMac 0
scalar RSUExampleScenario.node[59].nic.mac1609_4 TooLittleTime 0
scalar RSUExampleScenario.node[59].nic.mac1609_4 TimesIntoBackoff 119
scalar RSUExampleScenario.node[59].nic.mac1609_4 SlotsBackoff 189
scalar RSUExampleScenario.node[59].nic.mac1609_4 NumInternalContention 0
scalar RSUExampleScenario.node[59].nic.mac1609_4 totalBusyTime 0.046831
scalar RSUExampleScenario.node[59].nic.mac1609_4 retriesExceeded:count 0
attr source org_car2x_veins_modules_mac_sigRetriesExceeded
scalar RSUExampleScenario.node[59].nic.mac1609_4 sentAcks:count 0
attr source org_car2x_veins_modules_mac_sigSentAck
scalar RSUExampleScenario.node[59].nic.mac1609_4 sentPackets:count 119
attr source org_car2x_veins_modules_mac_sigSentPacket
scalar RSUExampleScenario.node[59].nic.mac1609_4 collisions:count 0
attr source org_car2x_veins_modules_mac_sigCollision
scalar RSUExampleScenario.node[59].nic.mac1609_4 channelBusy:timeavg 0.00039687288135593
attr source org_car2x_veins_modules_mac_sigChannelBusy
scalar RSUExampleScenario.node[59].veinsmobility startTime 1
scalar RSUExampleScenario.node[59].veinsmobility totalTime 117
scalar RSUExampleScenario.node[59].veinsmobility stopTime 119
scalar RSUExampleScenario.node[59].veinsmobility minSpeed 2.211610493972
scalar RSUExampleScenario.node[59].veinsmobility maxSpeed 10.62151412956
scalar RSUExampleScenario.node[59].veinsmobility totalDistance 1071.1237488309
scalar RSUExampleScenario.node[59].veinsmobility totalCO2Emission 293.75833728799
scalar RSUExampleScenario.node[84].appl generatedWSMs 1
scalar RSUExampleScenario.node[84].appl receivedWSMs 4
scalar RSUExampleScenario.node[84].appl generatedBSMs 123
scalar RSUExampleScenario.node[84].appl receivedBSMs 506
scalar RSUExampleScenario.node[84].appl generatedWSAs 0
scalar RSUExampleScenario.node[84].appl receivedWSAs 0
scalar RSUExampleScenario.node[84].nic.phy80211p busyTime 0.00053177235772358
scalar RSUExampleScenario.node[84].nic.mac1609_4 ReceivedUnicastPackets 0
scalar RSUExampleScenario.node[84].nic.mac1609_4 ReceivedBroadcasts 510
scalar RSUExampleScenario.node[84].nic.mac1609_4 SentPackets 124
scalar RSUExampleScenario.node[84].nic.mac1609_4 SentAcknowledgements 0
scalar RSUExampleScenario.node[84].nic.mac1609_4 RetriesExceeded 0
scalar RSUExampleScenario.node[84].nic.mac1609_4 SNIRLostPackets 114
scalar RSUExampleScenario.node[84].nic.mac1609_4 RXTXLostPackets 0
scalar RSUExampleScenario.node[84].nic.mac1609_4 TotalLostPackets 114
scalar RSUExampleScenario.node[84].nic.mac1609_4 DroppedPacketsInMac 0
scalar RSUExampleScenario.node[84].nic.mac1609_4 TooLittleTime 0
scalar RSUExampleScenario.node[84].nic.mac1609_4 TimesIntoBackoff 124
scalar RSUExampleScenario.node[84].nic.mac1609_4 SlotsBackoff 189
scalar RSUExampleScenario.node[84].nic.mac1609_4 NumInternalContention 0
scalar RSUExampleScenario.node[84].nic.mac1609_4 totalBusyTime 0.078556
scalar RSUExampleScenario.node[84].nic.mac1609_4 retriesExceeded:count 0
attr source org_car2x_veins_modules_mac_sigRetriesExceeded
scalar RSUExampleScenario.node[84].nic.mac1609_4 sentAcks:count 0
attr source org_car2x_veins_modules_mac_sigSentAck
scalar RSUExampleScenario.node[84].nic.mac1609_4 sentPackets:count 124
attr source org_car2x_veins_modules_mac_sigSentPacket
scalar RSUExampleScenario.node[84].nic.mac1609_4 collisions:count 0
attr source org_car2x_veins_modules_mac_sigCollision
scalar RSUExampleScenario.node[84].nic.mac1609_4 channelBusy:timeavg 0.00063866666666667
attr source org_car2x_veins_modules_mac_sigChannelBusy
scalar RSUExampleScenario.node[84].veinsmobility startTime 1
scalar RSUExampleScenario.node[84].veinsmobility totalTime 122
scalar RSUExampleScenario.node[84].veinsmobility stopTime 124
scalar RSUExampleScenario.node[84].veinsmobility minSpeed 0.0010198129777406
scalar RSUExampleScenario.node[84].veinsmobility maxSpeed 15.63975357311
scalar RSUExampleScenario.node[84].veinsmobility totalDistance 1359.2496857638
scalar RSUExampleScenario.node[84].veinsmobility totalCO2Emission 473.50292222455
scalar RSUExampleScenario.node[94].appl generatedWSMs 1
scalar RSUExampleScenario.node[94].appl receivedWSMs 6
scalar RSUExampleScenario.node[94].appl generatedBSMs 122
scalar RSUExampleScenario.node[94].appl receivedBSMs 533
scalar RSUExampleScenario.node[94].appl generatedWSAs 0
scalar RSUExampleScenario.node[94].appl receivedWSAs 0
scalar RSUExampleScenario.node[94].nic.phy80211p busyTime 0.0005672131147541
scalar RSUExampleScenario.node[94].nic.mac1609_4 ReceivedUnicastPackets 0
scalar RSUExampleScenario.node[94].nic.mac1609_4 ReceivedBroadcasts 539
scalar RSUExampleScenario.node[94].nic.mac1609_4 SentPackets 123
scalar RSUExampleScenario.node[94].nic.mac1609_4 SentAcknowledgements 0
scalar RSUExampleScenario.node[94].nic.mac1609_4 RetriesExceeded 0
scalar RSUExampleScenario.node[94].nic.mac1609_4 SNIRLostPackets 119
scalar RSUExampleScenario.node[94].nic.mac1609_4 RXTXLostPackets 0
scalar RSUExampleScenario.node[94].nic.mac1609_4 TotalLostPackets 119
scalar RSUExampleScenario.node[94].nic.mac1609_4 DroppedPacketsInMac 0
scalar RSUExampleScenario.node[94].nic.mac1609_4 TooLittleTime 0
scalar RSUExampleScenario.node[94].nic.mac1609_4 TimesIntoBackoff 124
scalar RSUExampleScenario.node[94].nic.mac1609_4 SlotsBackoff 167
scalar RSUExampleScenario.node[94].nic.mac1609_4 NumInternalContention 0
scalar RSUExampleScenario.node[94].nic.mac1609_4 totalBusyTime 0.082243
scalar RSUExampleScenario.node[94].nic.mac1609_4 retriesExceeded:count 0
attr source org_car2x_veins_modules_mac_sigRetriesExceeded
scalar RSUExampleScenario.node[94].nic.mac1609_4 sentAcks:count 0
attr source org_car2x_veins_modules_mac_sigSentAck
scalar RSUExampleScenario.node[94].nic.mac1609_4 sentPackets:count 123
attr source org_car2x_veins_modules_mac_sigSentPacket
scalar RSUExampleScenario.node[94].nic.mac1609_4 collisions:count 0
attr source org_car2x_veins_modules_mac_sigCollision
scalar RSUExampleScenario.node[94].nic.mac1609_4 channelBusy:timeavg 0.00067412295081968
attr source org_car2x_veins_modules_mac_sigChannelBusy
scalar RSUExampleScenario.node[94].veinsmobility startTime 4
scalar RSUExampleScenario.node[94].veinsmobility totalTime 121
scalar RSUExampleScenario.node[94].veinsmobility stopTime 126
scalar RSUExampleScenario.node[94].veinsmobility minSpeed 0.015421285278651
scalar RSUExampleScenario.node[94].veinsmobility maxSpeed 13.390215582055
scalar RSUExampleScenario.node[94].veinsmobility totalDistance 1261.6300579865
scalar RSUExampleScenario.node[94].veinsmobility totalCO2Emission 363.5932757438
scalar RSUExampleScenario.node[3].appl generatedWSMs 1
scalar RSUExampleScenario.node[3].appl receivedWSMs 5
scalar RSUExampleScenario.node[3].appl generatedBSMs 134
scalar RSUExampleScenario.node[3].appl receivedBSMs 463
scalar RSUExampleScenario.node[3].appl generatedWSAs 0
scalar RSUExampleScenario.node[3].appl receivedWSAs 0
scalar RSUExampleScenario.node[3].nic.phy80211p busyTime 0.00045665671641791
scalar RSUExampleScenario.node[3].nic.mac1609_4 ReceivedUnicastPackets 0
scalar RSUExampleScenario.node[3].nic.mac1609_4 ReceivedBroadcasts 468
scalar RSUExampleScenario.node[3].nic.mac1609_4 SentPackets 135
scalar RSUExampleScenario.node[3].nic.mac1609_4 SentAcknowledgements 0
scalar RSUExampleScenario.node[3].nic.mac1609_4 RetriesExceeded 0
scalar RSUExampleScenario.node[3].nic.mac1609_4 SNIRLostPackets 113
scalar RSUExampleScenario.node[3].nic.mac1609_4 RXTXLostPackets 0
scalar RSUExampleScenario.node[3].nic.mac1609_4 TotalLostPackets 113
scalar RSUExampleScenario.node[3].nic.mac1609_4 DroppedPacketsInMac 0
scalar RSUExampleScenario.node[3].nic.mac1609_4 TooLittleTime 0
scalar RSUExampleScenario.node[3].nic.mac1609_4 TimesIntoBackoff 135
scalar RSUExampleScenario.node[3].nic.mac1609_4 SlotsBackoff 195
scalar RSUExampleScenario.node[3].nic.mac1609_4 NumInternalContention 0
scalar RSUExampleScenario.node[3].nic.mac1609_4 totalBusyTime 0.075495
scalar RSUExampleScenario.node[3].nic.mac1609_4 retriesExceeded:count 0
attr source org_car2x_veins_modules_mac_sigRetriesExceeded
scalar RSUExampleScenario.node[3].nic.mac1609_4 sentAcks:count 0
attr source org_car2x_veins_modules_mac_sigSentAck
scalar RSUExampleScenario.node[3].nic.mac1609_4 sentPackets:count 135
attr source org_car2x_veins_modules_mac_sigSentPacket
scalar RSUExampleScenario.node[3].nic.mac1609_4 collisions:count 0
attr source org_car2x_veins_modules_mac_sigCollision
scalar RSUExampleScenario.node[3].nic.mac1609_4 channelBusy:timeavg 0.00056339552238806
attr source org_car2x_veins_modules_mac_sigChannelBusy
scalar RSUExampleScenario.node[3].veinsmobility startTime 1
scalar RSUExampleScenario.node[3].veinsmobility totalTime 133
scalar RSUExampleScenario.node[3].veinsmobility stopTime 135
scalar RSUExampleScenario.node[3].veinsmobility minSpeed 1.4720920375951
scalar RSUExampleScenario.node[3].veinsmobility maxSpeed 13.132519021508
scalar RSUExampleScenario.node[3].veinsmobility totalDistance 1448.7193729336
scalar RSUExampleScenario.node[3].veinsmobility totalCO2Emission 400.62132017223
scalar RSUExampleScenario.node[79].appl generatedWSMs 1
scalar RSUExampleScenario.node[79].appl receivedWSMs 6
scalar RSUExampleScenario.node[79].appl generatedBSMs 135
scalar RSUExampleScenario.node[79].appl receivedBSMs 491
scalar RSUExampleScenario.node[79].appl generatedWSAs 0
scalar RSUExampleScenario.node[79].appl receivedWSAs 0
scalar RSUExampleScenario.node[79].nic.phy80211p busyTime 0.00046423703703704
scalar RSUExampleScenario.node[79].nic.mac1609_4 ReceivedUnicastPackets 0
scalar RSUExampleScenario.node[79].nic.mac1609_4 ReceivedBroadcasts 497
scalar RSUExampleScenario.node[79].nic.mac1609_4 SentPackets 136
scalar RSUExampleScenario.node[79].nic.mac1609_4 SentAcknowledgements 0
scalar RSUExampleScenario.node[79].nic.mac1609_4 RetriesExceeded 0
scalar RSUExampleScenario.node[79].nic.mac1609_4 SNIRLostPackets 97
scalar RSUExampleScenario.node[79].nic.mac1609_4 RXTXLostPackets 0
scalar RSUExampleScenario.node[79].nic.mac1609_4 TotalLostPackets 97
scalar RSUExampleScenario.node[79].nic.mac1609_4 DroppedPacketsInMac 0
scalar RSUExampleScenario.node[79].nic.mac1609_4 TooLittleTime 0
scalar RSUExampleScenario.node[79].nic.mac1609_4 TimesIntoBackoff 136
scalar RSUExampleScenario.node[79].nic.mac1609_4 SlotsBackoff 182
scalar RSUExampleScenario.node[79].nic.mac1609_4 NumInternalContention 0
scalar RSUExampleScenario.node[79].nic.mac1609_4 totalBusyTime 0.07708
scalar RSUExampleScenario.node[79].nic.mac1609_4 retriesExceeded:count 0
attr source org_car2x_veins_modules_mac_sigRetriesExceeded
scalar RSUExampleScenario.node[79].nic.mac1609_4 sentAcks:count 0
attr source org_car2x_veins_modules_mac_sigSentAck
scalar RSUExampleScenario.node[79].nic.mac1609_4 sentPackets:count 136
attr source org_car2x_veins_modules_mac_sigSentPacket
scalar RSUExampleScenario.node[79].nic.mac1609_4 collisions:count 0
attr source org_car2x_veins_modules_mac_sigCollision
scalar RSUExampleScenario.node[79].nic.mac1609_4 channelBusy:timeavg 0.00057096296296296
attr source org_car2x_veins_modules_mac_sigChannelBusy
scalar RSUExampleScenario.node[79].veinsmobility startTime 1
scalar RSUExampleScenario.node[79].veinsmobility totalTime 134
scalar RSUExampleScenario.node[79].veinsmobility stopTime 136
scalar RSUExampleScenario.node[79].veinsmobility minSpeed 0.037185210217761
scalar RSUExampleScenario.node[79].veinsmobility maxSpeed 17.567220690601
scalar RSUExampleScenario.node[79].veinsmobility totalDistance 1533.6901653916
scalar RSUExampleScenario.node[79].veinsmobility totalCO2Emission 519.22976649379
scalar RSUExampleScenario.node[34].appl generatedWSMs 1
scalar RSUExampleScenario.node[34].appl receivedWSMs 8
scalar RSUExampleScenario.node[34].appl generatedBSMs 138
scalar RSUExampleScenario.node[34].appl receivedBSMs 545
scalar RSUExampleScenario.node[34].appl generatedWSAs 0
scalar RSUExampleScenario.node[34].appl receivedWSAs 0
scalar RSUExampleScenario.node[34].nic.phy80211p busyTime 0.00049294964028777
scalar RSUExampleScenario.node[34].nic.mac1609_4 ReceivedUnicastPackets 0
scalar RSUExampleScenario.node[34].nic.mac1609_4 ReceivedBroadcasts 553
scalar RSUExampleScenario.node[34].nic.mac1609_4 SentPackets 139
scalar RSUExampleScenario.node[34].nic.mac1609_4 SentAcknowledgements 0
scalar RSUExampleScenario.node[34].nic.mac1609_4 RetriesExceeded 0
scalar RSUExampleScenario.node[34].nic.mac1609_4 SNIRLostPackets 96
scalar RSUExampleScenario.node[34].nic.mac1609_4 RXTXLostPackets 0
scalar RSUExampleScenario.node[34].nic.mac1609_4 TotalLostPackets 96
scalar RSUExampleScenario.node[34].nic.mac1609_4 DroppedPacketsInMac 0
scalar RSUExampleScenario.node[34].nic.mac1609_4 TooLittleTime 0
scalar RSUExampleScenario.node[34].nic.mac1609_4 TimesIntoBackoff 139
scalar RSUExampleScenario.node[34].nic.mac1609_4 SlotsBackoff 232
scalar RSUExampleScenario.node[34].nic.mac1609_4 NumInternalContention 0
scalar RSUExampleScenario.node[34].nic.mac1609_4 totalBusyTime 0.083243
scalar RSUExampleScenario.node[34].nic.mac1609_4 retriesExceeded:count 0
attr source org_car2x_veins_modules_mac_sigRetriesExceeded
scalar RSUExampleScenario.node[34].nic.mac1609_4 sentAcks:count 0
attr source org_car2x_veins_modules_mac_sigSentAck
scalar RSUExampleScenario.node[34].nic.mac1609_4 sentPackets:count 139
attr source org_car2x_veins_modules_mac_sigSentPacket
scalar RSUExampleScenario.node[34].nic.mac1609_4 collisions:count 0
attr source org_car2x_veins_modules_mac_sigCollision
scalar RSUExampleScenario.node[34].nic.mac1609_4 channelBusy:timeavg 0.00059887050359713
attr source org_car2x_veins_modules_mac_sigChannelBusy
scalar RSUExampleScenario.node[34].veinsmobility startTime 1
scalar RSUExampleScenario.node[34].veinsmobility totalTime 138
scalar RSUExampleScenario.node[34].veinsmobility stopTime 140
scalar RSUExampleScenario.node[34].veinsmobility minSpeed 0.61734119314727
scalar RSUExampleScenario.node[34].veinsmobility maxSpeed 12.622119459935
scalar RSUExampleScenario.node[34].veinsmobility totalDistance 1457.7017384791
scalar RSUExampleScenario.node[34].veinsmobility totalCO2Emission 372.00163011373
scalar RSUExampleScenario.node[39].appl generatedWSMs 1
scalar RSUExampleScenario.node[39].appl receivedWSMs 6
scalar RSUExampleScenario.node[39].appl generatedBSMs 156
scalar RSUExampleScenario.node[39].appl receivedBSMs 318
scalar RSUExampleScenario.node[39].appl generatedWSAs 0
scalar RSUExampleScenario.node[39].appl receivedWSAs 0
scalar RSUExampleScenario.node[39].nic.phy80211p busyTime 0.00024892307692308
scalar RSUExampleScenario.node[39].nic.mac1609_4 ReceivedUnicastPackets 0
scalar RSUExampleScenario.node[39].nic.mac1609_4 ReceivedBroadcasts 324
scalar RSUExampleScenario.node[39].nic.mac1609_4 SentPackets 157
scalar RSUExampleScenario.node[39].nic.mac1609_4 SentAcknowledgements 0
scalar RSUExampleScenario.node[39].nic.mac1609_4 RetriesExceeded 0
scalar RSUExampleScenario.node[39].nic.mac1609_4 SNIRLostPackets 42
scalar RSUExampleScenario.node[39].nic.mac1609_4 RXTXLostPackets 0
scalar RSUExampleScenario.node[39].nic.mac1609_4 TotalLostPackets 42
scalar RSUExampleScenario.node[39].nic.mac1609_4 DroppedPacketsInMac 0
scalar RSUExampleScenario.node[39].nic.mac1609_4 TooLittleTime 0
scalar RSUExampleScenario.node[39].nic.mac1609_4 TimesIntoBackoff 158
scalar RSUExampleScenario.node[39].nic.mac1609_4 SlotsBackoff 236
scalar RSUExampleScenario.node[39].nic.mac1609_4 NumInternalContention 0
scalar RSUExampleScenario.node[39].nic.mac1609_4 totalBusyTime 0.055445
scalar RSUExampleScenario.node[39].nic.mac1609_4 retriesExceeded:count 0
attr source org_car2x_veins_modules_mac_sigRetriesExceeded
scalar RSUExampleScenario.node[39].nic.mac1609_4 sentAcks:count 0
attr source org_car2x_veins_modules_mac_sigSentAck
scalar RSUExampleScenario.node[39].nic.mac1609_4 sentPackets:count 157
attr source org_car2x_veins_modules_mac_sigSentPacket
scalar RSUExampleScenario.node[39].nic.mac1609_4 collisions:count 0
attr source org_car2x_veins_modules_mac_sigCollision
scalar RSUExampleScenario.node[39].nic.mac1609_4 channelBusy:timeavg 0.00035541666666667
attr source org_car2x_veins_modules_mac_sigChannelBusy
scalar RSUExampleScenario.node[39].veinsmobility startTime 1
scalar RSUExampleScenario.node[39].veinsmobility totalTime 155
scalar RSUExampleScenario.node[39].veinsmobility stopTime 157
scalar RSUExampleScenario.node[39].veinsmobility minSpeed 1.4993388696341
scalar RSUExampleScenario.node[39].veinsmobility maxSpeed 10.383640848198
scalar RSUExampleScenario.node[39].veinsmobility totalDistance 1472.3122247158
scalar RSUExampleScenario.node[39].veinsmobility totalCO2Emission 317.15348060303
scalar RSUExampleScenario.manager roiArea 0

