version 2
run General-0-20250518-02:06:53-53423
attr configname General
attr datetime 20250518-02:06:53
attr experiment General
attr inifile omnetpp.ini
attr iterationvars ""
attr iterationvarsf ""
attr measurement ""
attr network RSUExampleScenario
attr processid 53423
attr repetition 0
attr replication #0
attr resultdir results
attr runnumber 0
attr seedset 0
param *.playgroundSizeX 1000m
param *.playgroundSizeY 1000m
param *.playgroundSizeZ 50m
param *.manager.launchConfig "xmldoc(\"../../../sumo_scenarios/SUMO-Manhattan-1km_x_1km/100_0.launchd.xml\")"
param *.obstacles.obstacles "xmldoc(\"config.xml\", \"//AnalogueModel[@type='SimpleObstacleShadowing']/obstacles\")"
param *.connectionManager.sendDirect true
param *.connectionManager.maxInterfDist 260m
param *.**.nic.phy80211p.usePropagationDelay true
param *.**.nic.phy80211p.useNoiseFloor true
param *.**.nic.phy80211p.noiseFloor -98dBm
param *.**.nic.phy80211p.decider "xmldoc(\"config.xml\")"
param *.**.nic.phy80211p.analogueModels "xmldoc(\"config.xml\")"
param *.**.nic.phy80211p.minPowerLevel -110dBm
param *.**.nic.mac1609_4.txPower 20mW
param *.**.nic.mac1609_4.bitrate 6Mbps
param *.rsu[*].applType "\"TraCIDemoRSU11p\""
param *.rsu[0].mobility.x 200
param *.rsu[0].mobility.y 200
param *.rsu[0].mobility.z 3
param *.node[*].applType "\"TraCIDemo11p\""
param *.node[*].veinsmobility.x 0
param *.node[*].veinsmobility.y 0
param *.node[*].veinsmobility.z 0
param *.node[*].veinsmobility.setHostSpeed false

vector 0 RSUExampleScenario.node[0].veinsmobility posx ETV
vector 1 RSUExampleScenario.node[0].veinsmobility posy ETV
vector 2 RSUExampleScenario.node[1].veinsmobility posx ETV
vector 3 RSUExampleScenario.node[1].veinsmobility posy ETV
vector 4 RSUExampleScenario.node[2].veinsmobility posx ETV
vector 5 RSUExampleScenario.node[2].veinsmobility posy ETV
vector 6 RSUExampleScenario.node[3].veinsmobility posx ETV
vector 7 RSUExampleScenario.node[3].veinsmobility posy ETV
vector 8 RSUExampleScenario.node[4].veinsmobility posx ETV
vector 9 RSUExampleScenario.node[4].veinsmobility posy ETV
vector 10 RSUExampleScenario.node[5].veinsmobility posx ETV
vector 11 RSUExampleScenario.node[5].veinsmobility posy ETV
vector 12 RSUExampleScenario.node[6].veinsmobility posx ETV
vector 13 RSUExampleScenario.node[6].veinsmobility posy ETV
vector 14 RSUExampleScenario.node[7].veinsmobility posx ETV
vector 15 RSUExampleScenario.node[7].veinsmobility posy ETV
vector 16 RSUExampleScenario.node[8].veinsmobility posx ETV
vector 17 RSUExampleScenario.node[8].veinsmobility posy ETV
vector 18 RSUExampleScenario.node[9].veinsmobility posx ETV
vector 19 RSUExampleScenario.node[9].veinsmobility posy ETV
vector 20 RSUExampleScenario.node[10].veinsmobility posx ETV
vector 21 RSUExampleScenario.node[10].veinsmobility posy ETV
vector 22 RSUExampleScenario.node[11].veinsmobility posx ETV
vector 23 RSUExampleScenario.node[11].veinsmobility posy ETV
vector 24 RSUExampleScenario.node[12].veinsmobility posx ETV
vector 25 RSUExampleScenario.node[12].veinsmobility posy ETV
vector 26 RSUExampleScenario.node[13].veinsmobility posx ETV
vector 27 RSUExampleScenario.node[13].veinsmobility posy ETV
vector 28 RSUExampleScenario.node[14].veinsmobility posx ETV
vector 29 RSUExampleScenario.node[14].veinsmobility posy ETV
vector 30 RSUExampleScenario.node[15].veinsmobility posx ETV
vector 31 RSUExampleScenario.node[15].veinsmobility posy ETV
vector 32 RSUExampleScenario.node[16].veinsmobility posx ETV
vector 33 RSUExampleScenario.node[16].veinsmobility posy ETV
vector 34 RSUExampleScenario.node[17].veinsmobility posx ETV
vector 35 RSUExampleScenario.node[17].veinsmobility posy ETV
vector 36 RSUExampleScenario.node[18].veinsmobility posx ETV
vector 37 RSUExampleScenario.node[18].veinsmobility posy ETV
vector 38 RSUExampleScenario.node[19].veinsmobility posx ETV
vector 39 RSUExampleScenario.node[19].veinsmobility posy ETV
vector 40 RSUExampleScenario.node[20].veinsmobility posx ETV
vector 41 RSUExampleScenario.node[20].veinsmobility posy ETV
vector 42 RSUExampleScenario.node[21].veinsmobility posx ETV
vector 43 RSUExampleScenario.node[21].veinsmobility posy ETV
vector 44 RSUExampleScenario.node[22].veinsmobility posx ETV
vector 45 RSUExampleScenario.node[22].veinsmobility posy ETV
vector 46 RSUExampleScenario.node[23].veinsmobility posx ETV
vector 47 RSUExampleScenario.node[23].veinsmobility posy ETV
vector 48 RSUExampleScenario.node[24].veinsmobility posx ETV
vector 49 RSUExampleScenario.node[24].veinsmobility posy ETV
vector 50 RSUExampleScenario.node[25].veinsmobility posx ETV
vector 51 RSUExampleScenario.node[25].veinsmobility posy ETV
vector 52 RSUExampleScenario.node[26].veinsmobility posx ETV
vector 53 RSUExampleScenario.node[26].veinsmobility posy ETV
vector 54 RSUExampleScenario.node[27].veinsmobility posx ETV
vector 55 RSUExampleScenario.node[27].veinsmobility posy ETV
vector 56 RSUExampleScenario.node[28].veinsmobility posx ETV
vector 57 RSUExampleScenario.node[28].veinsmobility posy ETV
vector 58 RSUExampleScenario.node[29].veinsmobility posx ETV
vector 59 RSUExampleScenario.node[29].veinsmobility posy ETV
vector 60 RSUExampleScenario.node[30].veinsmobility posx ETV
vector 61 RSUExampleScenario.node[30].veinsmobility posy ETV
vector 62 RSUExampleScenario.node[31].veinsmobility posx ETV
vector 63 RSUExampleScenario.node[31].veinsmobility posy ETV
vector 64 RSUExampleScenario.node[32].veinsmobility posx ETV
vector 65 RSUExampleScenario.node[32].veinsmobility posy ETV
vector 66 RSUExampleScenario.node[33].veinsmobility posx ETV
vector 67 RSUExampleScenario.node[33].veinsmobility posy ETV
vector 68 RSUExampleScenario.node[34].veinsmobility posx ETV
vector 69 RSUExampleScenario.node[34].veinsmobility posy ETV
vector 70 RSUExampleScenario.node[35].veinsmobility posx ETV
vector 71 RSUExampleScenario.node[35].veinsmobility posy ETV
vector 72 RSUExampleScenario.node[36].veinsmobility posx ETV
vector 73 RSUExampleScenario.node[36].veinsmobility posy ETV
vector 74 RSUExampleScenario.node[37].veinsmobility posx ETV
vector 75 RSUExampleScenario.node[37].veinsmobility posy ETV
vector 76 RSUExampleScenario.node[38].veinsmobility posx ETV
vector 77 RSUExampleScenario.node[38].veinsmobility posy ETV
vector 78 RSUExampleScenario.node[39].veinsmobility posx ETV
vector 79 RSUExampleScenario.node[39].veinsmobility posy ETV
vector 80 RSUExampleScenario.node[40].veinsmobility posx ETV
vector 81 RSUExampleScenario.node[40].veinsmobility posy ETV
vector 82 RSUExampleScenario.node[41].veinsmobility posx ETV
vector 83 RSUExampleScenario.node[41].veinsmobility posy ETV
vector 84 RSUExampleScenario.node[42].veinsmobility posx ETV
vector 85 RSUExampleScenario.node[42].veinsmobility posy ETV
vector 86 RSUExampleScenario.node[43].veinsmobility posx ETV
vector 87 RSUExampleScenario.node[43].veinsmobility posy ETV
vector 88 RSUExampleScenario.node[44].veinsmobility posx ETV
vector 89 RSUExampleScenario.node[44].veinsmobility posy ETV
vector 90 RSUExampleScenario.node[45].veinsmobility posx ETV
vector 91 RSUExampleScenario.node[45].veinsmobility posy ETV
vector 92 RSUExampleScenario.node[46].veinsmobility posx ETV
vector 93 RSUExampleScenario.node[46].veinsmobility posy ETV
vector 94 RSUExampleScenario.node[47].veinsmobility posx ETV
vector 95 RSUExampleScenario.node[47].veinsmobility posy ETV
vector 96 RSUExampleScenario.node[48].veinsmobility posx ETV
vector 97 RSUExampleScenario.node[48].veinsmobility posy ETV
vector 98 RSUExampleScenario.node[49].veinsmobility posx ETV
vector 99 RSUExampleScenario.node[49].veinsmobility posy ETV
vector 100 RSUExampleScenario.node[50].veinsmobility posx ETV
vector 101 RSUExampleScenario.node[50].veinsmobility posy ETV
vector 102 RSUExampleScenario.node[51].veinsmobility posx ETV
vector 103 RSUExampleScenario.node[51].veinsmobility posy ETV
vector 104 RSUExampleScenario.node[52].veinsmobility posx ETV
vector 105 RSUExampleScenario.node[52].veinsmobility posy ETV
vector 106 RSUExampleScenario.node[53].veinsmobility posx ETV
vector 107 RSUExampleScenario.node[53].veinsmobility posy ETV
vector 108 RSUExampleScenario.node[54].veinsmobility posx ETV
vector 109 RSUExampleScenario.node[54].veinsmobility posy ETV
vector 110 RSUExampleScenario.node[55].veinsmobility posx ETV
vector 111 RSUExampleScenario.node[55].veinsmobility posy ETV
vector 112 RSUExampleScenario.node[56].veinsmobility posx ETV
vector 113 RSUExampleScenario.node[56].veinsmobility posy ETV
vector 114 RSUExampleScenario.node[57].veinsmobility posx ETV
vector 115 RSUExampleScenario.node[57].veinsmobility posy ETV
vector 116 RSUExampleScenario.node[58].veinsmobility posx ETV
vector 117 RSUExampleScenario.node[58].veinsmobility posy ETV
vector 118 RSUExampleScenario.node[59].veinsmobility posx ETV
vector 119 RSUExampleScenario.node[59].veinsmobility posy ETV
vector 120 RSUExampleScenario.node[60].veinsmobility posx ETV
vector 121 RSUExampleScenario.node[60].veinsmobility posy ETV
vector 122 RSUExampleScenario.node[61].veinsmobility posx ETV
vector 123 RSUExampleScenario.node[61].veinsmobility posy ETV
vector 124 RSUExampleScenario.node[62].veinsmobility posx ETV
vector 125 RSUExampleScenario.node[62].veinsmobility posy ETV
vector 126 RSUExampleScenario.node[63].veinsmobility posx ETV
vector 127 RSUExampleScenario.node[63].veinsmobility posy ETV
vector 128 RSUExampleScenario.node[64].veinsmobility posx ETV
vector 129 RSUExampleScenario.node[64].veinsmobility posy ETV
vector 130 RSUExampleScenario.node[65].veinsmobility posx ETV
vector 131 RSUExampleScenario.node[65].veinsmobility posy ETV
vector 132 RSUExampleScenario.node[66].veinsmobility posx ETV
vector 133 RSUExampleScenario.node[66].veinsmobility posy ETV
vector 134 RSUExampleScenario.node[67].veinsmobility posx ETV
vector 135 RSUExampleScenario.node[67].veinsmobility posy ETV
vector 136 RSUExampleScenario.node[68].veinsmobility posx ETV
vector 137 RSUExampleScenario.node[68].veinsmobility posy ETV
vector 138 RSUExampleScenario.node[69].veinsmobility posx ETV
vector 139 RSUExampleScenario.node[69].veinsmobility posy ETV
vector 140 RSUExampleScenario.node[70].veinsmobility posx ETV
vector 141 RSUExampleScenario.node[70].veinsmobility posy ETV
vector 142 RSUExampleScenario.node[71].veinsmobility posx ETV
vector 143 RSUExampleScenario.node[71].veinsmobility posy ETV
vector 144 RSUExampleScenario.node[72].veinsmobility posx ETV
vector 145 RSUExampleScenario.node[72].veinsmobility posy ETV
vector 146 RSUExampleScenario.node[73].veinsmobility posx ETV
vector 147 RSUExampleScenario.node[73].veinsmobility posy ETV
vector 148 RSUExampleScenario.node[74].veinsmobility posx ETV
vector 149 RSUExampleScenario.node[74].veinsmobility posy ETV
vector 150 RSUExampleScenario.node[75].veinsmobility posx ETV
vector 151 RSUExampleScenario.node[75].veinsmobility posy ETV
vector 152 RSUExampleScenario.node[76].veinsmobility posx ETV
vector 153 RSUExampleScenario.node[76].veinsmobility posy ETV
vector 154 RSUExampleScenario.node[77].veinsmobility posx ETV
vector 155 RSUExampleScenario.node[77].veinsmobility posy ETV
vector 156 RSUExampleScenario.node[78].veinsmobility posx ETV
vector 157 RSUExampleScenario.node[78].veinsmobility posy ETV
vector 158 RSUExampleScenario.node[79].veinsmobility posx ETV
vector 159 RSUExampleScenario.node[79].veinsmobility posy ETV
vector 160 RSUExampleScenario.node[80].veinsmobility posx ETV
vector 161 RSUExampleScenario.node[80].veinsmobility posy ETV
vector 162 RSUExampleScenario.node[81].veinsmobility posx ETV
vector 163 RSUExampleScenario.node[81].veinsmobility posy ETV
vector 164 RSUExampleScenario.node[82].veinsmobility posx ETV
vector 165 RSUExampleScenario.node[82].veinsmobility posy ETV
vector 166 RSUExampleScenario.node[83].veinsmobility posx ETV
vector 167 RSUExampleScenario.node[83].veinsmobility posy ETV
vector 168 RSUExampleScenario.node[84].veinsmobility posx ETV
vector 169 RSUExampleScenario.node[84].veinsmobility posy ETV
vector 170 RSUExampleScenario.node[85].veinsmobility posx ETV
vector 171 RSUExampleScenario.node[85].veinsmobility posy ETV
vector 172 RSUExampleScenario.node[86].veinsmobility posx ETV
vector 173 RSUExampleScenario.node[86].veinsmobility posy ETV
vector 174 RSUExampleScenario.node[87].veinsmobility posx ETV
vector 175 RSUExampleScenario.node[87].veinsmobility posy ETV
vector 176 RSUExampleScenario.node[88].veinsmobility posx ETV
vector 177 RSUExampleScenario.node[88].veinsmobility posy ETV
vector 178 RSUExampleScenario.node[0].veinsmobility speed ETV
vector 179 RSUExampleScenario.node[1].veinsmobility speed ETV
vector 180 RSUExampleScenario.node[2].veinsmobility speed ETV
vector 181 RSUExampleScenario.node[3].veinsmobility speed ETV
vector 182 RSUExampleScenario.node[4].veinsmobility speed ETV
vector 183 RSUExampleScenario.node[5].veinsmobility speed ETV
vector 184 RSUExampleScenario.node[6].veinsmobility speed ETV
vector 185 RSUExampleScenario.node[7].veinsmobility speed ETV
vector 186 RSUExampleScenario.node[8].veinsmobility speed ETV
vector 187 RSUExampleScenario.node[9].veinsmobility speed ETV
vector 188 RSUExampleScenario.node[10].veinsmobility speed ETV
vector 189 RSUExampleScenario.node[11].veinsmobility speed ETV
vector 190 RSUExampleScenario.node[12].veinsmobility speed ETV
vector 191 RSUExampleScenario.node[13].veinsmobility speed ETV
vector 192 RSUExampleScenario.node[14].veinsmobility speed ETV
vector 193 RSUExampleScenario.node[15].veinsmobility speed ETV
vector 194 RSUExampleScenario.node[16].veinsmobility speed ETV
vector 195 RSUExampleScenario.node[17].veinsmobility speed ETV
vector 196 RSUExampleScenario.node[18].veinsmobility speed ETV
vector 197 RSUExampleScenario.node[19].veinsmobility speed ETV
vector 198 RSUExampleScenario.node[20].veinsmobility speed ETV
vector 199 RSUExampleScenario.node[21].veinsmobility speed ETV
vector 200 RSUExampleScenario.node[22].veinsmobility speed ETV
vector 201 RSUExampleScenario.node[23].veinsmobility speed ETV
vector 202 RSUExampleScenario.node[24].veinsmobility speed ETV
vector 203 RSUExampleScenario.node[25].veinsmobility speed ETV
vector 204 RSUExampleScenario.node[26].veinsmobility speed ETV
vector 205 RSUExampleScenario.node[27].veinsmobility speed ETV
vector 206 RSUExampleScenario.node[28].veinsmobility speed ETV
vector 207 RSUExampleScenario.node[29].veinsmobility speed ETV
vector 208 RSUExampleScenario.node[30].veinsmobility speed ETV
vector 209 RSUExampleScenario.node[31].veinsmobility speed ETV
vector 210 RSUExampleScenario.node[32].veinsmobility speed ETV
vector 211 RSUExampleScenario.node[33].veinsmobility speed ETV
vector 212 RSUExampleScenario.node[34].veinsmobility speed ETV
vector 213 RSUExampleScenario.node[35].veinsmobility speed ETV
vector 214 RSUExampleScenario.node[36].veinsmobility speed ETV
vector 215 RSUExampleScenario.node[37].veinsmobility speed ETV
vector 216 RSUExampleScenario.node[38].veinsmobility speed ETV
vector 217 RSUExampleScenario.node[39].veinsmobility speed ETV
vector 218 RSUExampleScenario.node[40].veinsmobility speed ETV
vector 219 RSUExampleScenario.node[41].veinsmobility speed ETV
vector 220 RSUExampleScenario.node[42].veinsmobility speed ETV
vector 221 RSUExampleScenario.node[43].veinsmobility speed ETV
vector 222 RSUExampleScenario.node[44].veinsmobility speed ETV
vector 223 RSUExampleScenario.node[45].veinsmobility speed ETV
vector 224 RSUExampleScenario.node[46].veinsmobility speed ETV
vector 225 RSUExampleScenario.node[47].veinsmobility speed ETV
vector 226 RSUExampleScenario.node[48].veinsmobility speed ETV
vector 227 RSUExampleScenario.node[49].veinsmobility speed ETV
vector 228 RSUExampleScenario.node[50].veinsmobility speed ETV
vector 229 RSUExampleScenario.node[51].veinsmobility speed ETV
vector 230 RSUExampleScenario.node[52].veinsmobility speed ETV
vector 231 RSUExampleScenario.node[53].veinsmobility speed ETV
vector 232 RSUExampleScenario.node[54].veinsmobility speed ETV
vector 233 RSUExampleScenario.node[55].veinsmobility speed ETV
vector 234 RSUExampleScenario.node[56].veinsmobility speed ETV
vector 235 RSUExampleScenario.node[57].veinsmobility speed ETV
vector 236 RSUExampleScenario.node[58].veinsmobility speed ETV
vector 237 RSUExampleScenario.node[59].veinsmobility speed ETV
vector 238 RSUExampleScenario.node[60].veinsmobility speed ETV
vector 239 RSUExampleScenario.node[61].veinsmobility speed ETV
vector 240 RSUExampleScenario.node[62].veinsmobility speed ETV
vector 241 RSUExampleScenario.node[63].veinsmobility speed ETV
vector 242 RSUExampleScenario.node[64].veinsmobility speed ETV
vector 243 RSUExampleScenario.node[65].veinsmobility speed ETV
vector 244 RSUExampleScenario.node[66].veinsmobility speed ETV
vector 245 RSUExampleScenario.node[67].veinsmobility speed ETV
vector 246 RSUExampleScenario.node[68].veinsmobility speed ETV
vector 247 RSUExampleScenario.node[69].veinsmobility speed ETV
vector 248 RSUExampleScenario.node[70].veinsmobility speed ETV
vector 249 RSUExampleScenario.node[71].veinsmobility speed ETV
vector 250 RSUExampleScenario.node[72].veinsmobility speed ETV
vector 251 RSUExampleScenario.node[73].veinsmobility speed ETV
vector 252 RSUExampleScenario.node[74].veinsmobility speed ETV
vector 253 RSUExampleScenario.node[75].veinsmobility speed ETV
vector 254 RSUExampleScenario.node[76].veinsmobility speed ETV
vector 255 RSUExampleScenario.node[77].veinsmobility speed ETV
vector 256 RSUExampleScenario.node[78].veinsmobility speed ETV
vector 257 RSUExampleScenario.node[79].veinsmobility speed ETV
vector 258 RSUExampleScenario.node[80].veinsmobility speed ETV
vector 259 RSUExampleScenario.node[81].veinsmobility speed ETV
vector 260 RSUExampleScenario.node[82].veinsmobility speed ETV
vector 261 RSUExampleScenario.node[83].veinsmobility speed ETV
vector 262 RSUExampleScenario.node[84].veinsmobility speed ETV
vector 263 RSUExampleScenario.node[85].veinsmobility speed ETV
vector 264 RSUExampleScenario.node[86].veinsmobility speed ETV
vector 265 RSUExampleScenario.node[87].veinsmobility speed ETV
vector 266 RSUExampleScenario.node[88].veinsmobility speed ETV
vector 267 RSUExampleScenario.node[0].veinsmobility acceleration ETV
vector 268 RSUExampleScenario.node[0].veinsmobility co2emission ETV
vector 269 RSUExampleScenario.node[1].veinsmobility acceleration ETV
vector 270 RSUExampleScenario.node[1].veinsmobility co2emission ETV
vector 271 RSUExampleScenario.node[2].veinsmobility acceleration ETV
vector 272 RSUExampleScenario.node[2].veinsmobility co2emission ETV
vector 273 RSUExampleScenario.node[3].veinsmobility acceleration ETV
vector 274 RSUExampleScenario.node[3].veinsmobility co2emission ETV
vector 275 RSUExampleScenario.node[4].veinsmobility acceleration ETV
vector 276 RSUExampleScenario.node[4].veinsmobility co2emission ETV
vector 277 RSUExampleScenario.node[5].veinsmobility acceleration ETV
vector 278 RSUExampleScenario.node[5].veinsmobility co2emission ETV
vector 279 RSUExampleScenario.node[6].veinsmobility acceleration ETV
vector 280 RSUExampleScenario.node[6].veinsmobility co2emission ETV
vector 281 RSUExampleScenario.node[7].veinsmobility acceleration ETV
vector 282 RSUExampleScenario.node[7].veinsmobility co2emission ETV
vector 283 RSUExampleScenario.node[8].veinsmobility acceleration ETV
vector 284 RSUExampleScenario.node[8].veinsmobility co2emission ETV
vector 285 RSUExampleScenario.node[9].veinsmobility acceleration ETV
vector 286 RSUExampleScenario.node[9].veinsmobility co2emission ETV
vector 287 RSUExampleScenario.node[10].veinsmobility acceleration ETV
vector 288 RSUExampleScenario.node[10].veinsmobility co2emission ETV
vector 289 RSUExampleScenario.node[11].veinsmobility acceleration ETV
vector 290 RSUExampleScenario.node[11].veinsmobility co2emission ETV
vector 291 RSUExampleScenario.node[12].veinsmobility acceleration ETV
vector 292 RSUExampleScenario.node[12].veinsmobility co2emission ETV
vector 293 RSUExampleScenario.node[13].veinsmobility acceleration ETV
vector 294 RSUExampleScenario.node[13].veinsmobility co2emission ETV
vector 295 RSUExampleScenario.node[14].veinsmobility acceleration ETV
vector 296 RSUExampleScenario.node[14].veinsmobility co2emission ETV
vector 297 RSUExampleScenario.node[15].veinsmobility acceleration ETV
vector 298 RSUExampleScenario.node[15].veinsmobility co2emission ETV
vector 299 RSUExampleScenario.node[16].veinsmobility acceleration ETV
vector 300 RSUExampleScenario.node[16].veinsmobility co2emission ETV
vector 301 RSUExampleScenario.node[17].veinsmobility acceleration ETV
vector 302 RSUExampleScenario.node[17].veinsmobility co2emission ETV
vector 303 RSUExampleScenario.node[18].veinsmobility acceleration ETV
vector 304 RSUExampleScenario.node[18].veinsmobility co2emission ETV
vector 305 RSUExampleScenario.node[19].veinsmobility acceleration ETV
vector 306 RSUExampleScenario.node[19].veinsmobility co2emission ETV
vector 307 RSUExampleScenario.node[20].veinsmobility acceleration ETV
vector 308 RSUExampleScenario.node[20].veinsmobility co2emission ETV
vector 309 RSUExampleScenario.node[21].veinsmobility acceleration ETV
vector 310 RSUExampleScenario.node[21].veinsmobility co2emission ETV
vector 311 RSUExampleScenario.node[22].veinsmobility acceleration ETV
vector 312 RSUExampleScenario.node[22].veinsmobility co2emission ETV
vector 313 RSUExampleScenario.node[23].veinsmobility acceleration ETV
vector 314 RSUExampleScenario.node[23].veinsmobility co2emission ETV
vector 315 RSUExampleScenario.node[24].veinsmobility acceleration ETV
vector 316 RSUExampleScenario.node[24].veinsmobility co2emission ETV
vector 317 RSUExampleScenario.node[25].veinsmobility acceleration ETV
vector 318 RSUExampleScenario.node[25].veinsmobility co2emission ETV
vector 319 RSUExampleScenario.node[26].veinsmobility acceleration ETV
vector 320 RSUExampleScenario.node[26].veinsmobility co2emission ETV
vector 321 RSUExampleScenario.node[27].veinsmobility acceleration ETV
vector 322 RSUExampleScenario.node[27].veinsmobility co2emission ETV
vector 323 RSUExampleScenario.node[28].veinsmobility acceleration ETV
vector 324 RSUExampleScenario.node[28].veinsmobility co2emission ETV
vector 325 RSUExampleScenario.node[29].veinsmobility acceleration ETV
vector 326 RSUExampleScenario.node[29].veinsmobility co2emission ETV
vector 327 RSUExampleScenario.node[30].veinsmobility acceleration ETV
vector 328 RSUExampleScenario.node[30].veinsmobility co2emission ETV
vector 329 RSUExampleScenario.node[31].veinsmobility acceleration ETV
vector 330 RSUExampleScenario.node[31].veinsmobility co2emission ETV
vector 331 RSUExampleScenario.node[32].veinsmobility acceleration ETV
vector 332 RSUExampleScenario.node[32].veinsmobility co2emission ETV
vector 333 RSUExampleScenario.node[33].veinsmobility acceleration ETV
vector 334 RSUExampleScenario.node[33].veinsmobility co2emission ETV
vector 335 RSUExampleScenario.node[34].veinsmobility acceleration ETV
vector 336 RSUExampleScenario.node[34].veinsmobility co2emission ETV
vector 337 RSUExampleScenario.node[35].veinsmobility acceleration ETV
vector 338 RSUExampleScenario.node[35].veinsmobility co2emission ETV
vector 339 RSUExampleScenario.node[36].veinsmobility acceleration ETV
vector 340 RSUExampleScenario.node[36].veinsmobility co2emission ETV
vector 341 RSUExampleScenario.node[37].veinsmobility acceleration ETV
vector 342 RSUExampleScenario.node[37].veinsmobility co2emission ETV
vector 343 RSUExampleScenario.node[38].veinsmobility acceleration ETV
vector 344 RSUExampleScenario.node[38].veinsmobility co2emission ETV
vector 345 RSUExampleScenario.node[39].veinsmobility acceleration ETV
vector 346 RSUExampleScenario.node[39].veinsmobility co2emission ETV
vector 347 RSUExampleScenario.node[40].veinsmobility acceleration ETV
vector 348 RSUExampleScenario.node[40].veinsmobility co2emission ETV
vector 349 RSUExampleScenario.node[41].veinsmobility acceleration ETV
vector 350 RSUExampleScenario.node[41].veinsmobility co2emission ETV
vector 351 RSUExampleScenario.node[42].veinsmobility acceleration ETV
vector 352 RSUExampleScenario.node[42].veinsmobility co2emission ETV
vector 353 RSUExampleScenario.node[43].veinsmobility acceleration ETV
vector 354 RSUExampleScenario.node[43].veinsmobility co2emission ETV
vector 355 RSUExampleScenario.node[44].veinsmobility acceleration ETV
vector 356 RSUExampleScenario.node[44].veinsmobility co2emission ETV
vector 357 RSUExampleScenario.node[45].veinsmobility acceleration ETV
vector 358 RSUExampleScenario.node[45].veinsmobility co2emission ETV
vector 359 RSUExampleScenario.node[46].veinsmobility acceleration ETV
vector 360 RSUExampleScenario.node[46].veinsmobility co2emission ETV
vector 361 RSUExampleScenario.node[47].veinsmobility acceleration ETV
vector 362 RSUExampleScenario.node[47].veinsmobility co2emission ETV
vector 363 RSUExampleScenario.node[48].veinsmobility acceleration ETV
vector 364 RSUExampleScenario.node[48].veinsmobility co2emission ETV
vector 365 RSUExampleScenario.node[49].veinsmobility acceleration ETV
vector 366 RSUExampleScenario.node[49].veinsmobility co2emission ETV
vector 367 RSUExampleScenario.node[50].veinsmobility acceleration ETV
vector 368 RSUExampleScenario.node[50].veinsmobility co2emission ETV
vector 369 RSUExampleScenario.node[51].veinsmobility acceleration ETV
vector 370 RSUExampleScenario.node[51].veinsmobility co2emission ETV
vector 371 RSUExampleScenario.node[52].veinsmobility acceleration ETV
vector 372 RSUExampleScenario.node[52].veinsmobility co2emission ETV
vector 373 RSUExampleScenario.node[53].veinsmobility acceleration ETV
vector 374 RSUExampleScenario.node[53].veinsmobility co2emission ETV
vector 375 RSUExampleScenario.node[54].veinsmobility acceleration ETV
vector 376 RSUExampleScenario.node[54].veinsmobility co2emission ETV
vector 377 RSUExampleScenario.node[55].veinsmobility acceleration ETV
vector 378 RSUExampleScenario.node[55].veinsmobility co2emission ETV
vector 379 RSUExampleScenario.node[56].veinsmobility acceleration ETV
vector 380 RSUExampleScenario.node[56].veinsmobility co2emission ETV
vector 381 RSUExampleScenario.node[57].veinsmobility acceleration ETV
vector 382 RSUExampleScenario.node[57].veinsmobility co2emission ETV
vector 383 RSUExampleScenario.node[58].veinsmobility acceleration ETV
vector 384 RSUExampleScenario.node[58].veinsmobility co2emission ETV
vector 385 RSUExampleScenario.node[59].veinsmobility acceleration ETV
vector 386 RSUExampleScenario.node[59].veinsmobility co2emission ETV
vector 387 RSUExampleScenario.node[60].veinsmobility acceleration ETV
vector 388 RSUExampleScenario.node[60].veinsmobility co2emission ETV
vector 389 RSUExampleScenario.node[61].veinsmobility acceleration ETV
vector 390 RSUExampleScenario.node[61].veinsmobility co2emission ETV
vector 391 RSUExampleScenario.node[62].veinsmobility acceleration ETV
vector 392 RSUExampleScenario.node[62].veinsmobility co2emission ETV
vector 393 RSUExampleScenario.node[63].veinsmobility acceleration ETV
vector 394 RSUExampleScenario.node[63].veinsmobility co2emission ETV
vector 395 RSUExampleScenario.node[64].veinsmobility acceleration ETV
vector 396 RSUExampleScenario.node[64].veinsmobility co2emission ETV
vector 397 RSUExampleScenario.node[65].veinsmobility acceleration ETV
vector 398 RSUExampleScenario.node[65].veinsmobility co2emission ETV
vector 399 RSUExampleScenario.node[66].veinsmobility acceleration ETV
vector 400 RSUExampleScenario.node[66].veinsmobility co2emission ETV
vector 401 RSUExampleScenario.node[67].veinsmobility acceleration ETV
vector 402 RSUExampleScenario.node[67].veinsmobility co2emission ETV
vector 403 RSUExampleScenario.node[68].veinsmobility acceleration ETV
vector 404 RSUExampleScenario.node[68].veinsmobility co2emission ETV
vector 405 RSUExampleScenario.node[69].veinsmobility acceleration ETV
vector 406 RSUExampleScenario.node[69].veinsmobility co2emission ETV
vector 407 RSUExampleScenario.node[70].veinsmobility acceleration ETV
vector 408 RSUExampleScenario.node[70].veinsmobility co2emission ETV
vector 409 RSUExampleScenario.node[71].veinsmobility acceleration ETV
vector 410 RSUExampleScenario.node[71].veinsmobility co2emission ETV
vector 411 RSUExampleScenario.node[72].veinsmobility acceleration ETV
vector 412 RSUExampleScenario.node[72].veinsmobility co2emission ETV
vector 413 RSUExampleScenario.node[73].veinsmobility acceleration ETV
vector 414 RSUExampleScenario.node[73].veinsmobility co2emission ETV
vector 415 RSUExampleScenario.node[74].veinsmobility acceleration ETV
vector 416 RSUExampleScenario.node[74].veinsmobility co2emission ETV
vector 417 RSUExampleScenario.node[75].veinsmobility acceleration ETV
vector 418 RSUExampleScenario.node[75].veinsmobility co2emission ETV
vector 419 RSUExampleScenario.node[76].veinsmobility acceleration ETV
vector 420 RSUExampleScenario.node[76].veinsmobility co2emission ETV
vector 421 RSUExampleScenario.node[77].veinsmobility acceleration ETV
vector 422 RSUExampleScenario.node[77].veinsmobility co2emission ETV
vector 423 RSUExampleScenario.node[78].veinsmobility acceleration ETV
vector 424 RSUExampleScenario.node[78].veinsmobility co2emission ETV
vector 425 RSUExampleScenario.node[79].veinsmobility acceleration ETV
vector 426 RSUExampleScenario.node[79].veinsmobility co2emission ETV
vector 427 RSUExampleScenario.node[80].veinsmobility acceleration ETV
vector 428 RSUExampleScenario.node[80].veinsmobility co2emission ETV
vector 429 RSUExampleScenario.node[81].veinsmobility acceleration ETV
vector 430 RSUExampleScenario.node[81].veinsmobility co2emission ETV
vector 431 RSUExampleScenario.node[82].veinsmobility acceleration ETV
vector 432 RSUExampleScenario.node[82].veinsmobility co2emission ETV
vector 433 RSUExampleScenario.node[83].veinsmobility acceleration ETV
vector 434 RSUExampleScenario.node[83].veinsmobility co2emission ETV
vector 435 RSUExampleScenario.node[84].veinsmobility acceleration ETV
vector 436 RSUExampleScenario.node[84].veinsmobility co2emission ETV
vector 437 RSUExampleScenario.node[85].veinsmobility acceleration ETV
vector 438 RSUExampleScenario.node[85].veinsmobility co2emission ETV
vector 439 RSUExampleScenario.node[86].veinsmobility acceleration ETV
vector 440 RSUExampleScenario.node[86].veinsmobility co2emission ETV
vector 441 RSUExampleScenario.node[87].veinsmobility acceleration ETV
vector 442 RSUExampleScenario.node[87].veinsmobility co2emission ETV
vector 443 RSUExampleScenario.node[88].veinsmobility acceleration ETV
vector 444 RSUExampleScenario.node[88].veinsmobility co2emission ETV
vector 445 RSUExampleScenario.node[89].veinsmobility posx ETV
vector 446 RSUExampleScenario.node[89].veinsmobility posy ETV
vector 447 RSUExampleScenario.node[90].veinsmobility posx ETV
vector 448 RSUExampleScenario.node[90].veinsmobility posy ETV
vector 449 RSUExampleScenario.node[91].veinsmobility posx ETV
vector 450 RSUExampleScenario.node[91].veinsmobility posy ETV
vector 451 RSUExampleScenario.node[92].veinsmobility posx ETV
vector 452 RSUExampleScenario.node[92].veinsmobility posy ETV
vector 453 RSUExampleScenario.node[93].veinsmobility posx ETV
vector 454 RSUExampleScenario.node[93].veinsmobility posy ETV
vector 455 RSUExampleScenario.node[94].veinsmobility posx ETV
vector 456 RSUExampleScenario.node[94].veinsmobility posy ETV
vector 457 RSUExampleScenario.node[95].veinsmobility posx ETV
vector 458 RSUExampleScenario.node[95].veinsmobility posy ETV
vector 459 RSUExampleScenario.node[96].veinsmobility posx ETV
vector 460 RSUExampleScenario.node[96].veinsmobility posy ETV
vector 461 RSUExampleScenario.node[97].veinsmobility posx ETV
vector 462 RSUExampleScenario.node[97].veinsmobility posy ETV
vector 463 RSUExampleScenario.node[98].veinsmobility posx ETV
vector 464 RSUExampleScenario.node[98].veinsmobility posy ETV
vector 465 RSUExampleScenario.node[89].veinsmobility speed ETV
vector 466 RSUExampleScenario.node[90].veinsmobility speed ETV
vector 467 RSUExampleScenario.node[91].veinsmobility speed ETV
vector 468 RSUExampleScenario.node[92].veinsmobility speed ETV
vector 469 RSUExampleScenario.node[93].veinsmobility speed ETV
vector 470 RSUExampleScenario.node[94].veinsmobility speed ETV
vector 471 RSUExampleScenario.node[95].veinsmobility speed ETV
vector 472 RSUExampleScenario.node[96].veinsmobility speed ETV
vector 473 RSUExampleScenario.node[97].veinsmobility speed ETV
vector 474 RSUExampleScenario.node[98].veinsmobility speed ETV
vector 475 RSUExampleScenario.node[89].veinsmobility acceleration ETV
vector 476 RSUExampleScenario.node[89].veinsmobility co2emission ETV
vector 477 RSUExampleScenario.node[90].veinsmobility acceleration ETV
vector 478 RSUExampleScenario.node[90].veinsmobility co2emission ETV
vector 479 RSUExampleScenario.node[91].veinsmobility acceleration ETV
vector 480 RSUExampleScenario.node[91].veinsmobility co2emission ETV
vector 481 RSUExampleScenario.node[92].veinsmobility acceleration ETV
vector 482 RSUExampleScenario.node[92].veinsmobility co2emission ETV
vector 483 RSUExampleScenario.node[93].veinsmobility acceleration ETV
vector 484 RSUExampleScenario.node[93].veinsmobility co2emission ETV
vector 485 RSUExampleScenario.node[94].veinsmobility acceleration ETV
vector 486 RSUExampleScenario.node[94].veinsmobility co2emission ETV
vector 487 RSUExampleScenario.node[95].veinsmobility acceleration ETV
vector 488 RSUExampleScenario.node[95].veinsmobility co2emission ETV
vector 489 RSUExampleScenario.node[96].veinsmobility acceleration ETV
vector 490 RSUExampleScenario.node[96].veinsmobility co2emission ETV
vector 491 RSUExampleScenario.node[97].veinsmobility acceleration ETV
vector 492 RSUExampleScenario.node[97].veinsmobility co2emission ETV
vector 493 RSUExampleScenario.node[98].veinsmobility acceleration ETV
vector 494 RSUExampleScenario.node[98].veinsmobility co2emission ETV
vector 495 RSUExampleScenario.node[99].veinsmobility posx ETV
vector 496 RSUExampleScenario.node[99].veinsmobility posy ETV
vector 497 RSUExampleScenario.node[99].veinsmobility speed ETV
vector 498 RSUExampleScenario.node[99].veinsmobility acceleration ETV
vector 499 RSUExampleScenario.node[99].veinsmobility co2emission ETV
320	13160	3	3.3540053270075
320	19701	4	5.0754103034362
320	27635	5	5.1089380527165
320	35421	6	4.8545577030958
320	43027	7	5.9822630504331
320	51055	8	6.8287603812444
320	58794	9	4.2457656293185
320	66725	10	0.973
320	75287	11	0.973
320	84416	12	4.434529272818
320	92953	13	6.2116932174
320	101128	14	7.8932200896828
320	109143	15	8.123160561016
320	117147	16	2.4144153312305
320	125187	17	1.4823360045369
320	133594	18	0.973
320	142467	19	6.111232638113
319	13160	3	2.1827345938887
319	19701	4	2.3980328541948
319	27635	5	1.8192625849275
319	35421	6	1.3983342896914
319	43027	7	1.5757762638619
319	51055	8	1.6070200065151
319	58794	9	0.70213180931964
319	66725	10	-3.7905132572192
319	75287	11	-3.4182328230469
319	84416	12	1.5574287398718
319	92953	13	1.9473776082275
319	101128	14	2.1271420360077
319	109143	15	1.8557293488902
319	117147	16	0.11917695854791
319	125187	17	-0.15818580016494
319	133594	18	-0.61412382326089
319	142467	19	1.1831035624025
204	6202	2	1.7152554555098
204	13160	3	3.8979900493985
204	19701	4	6.2960229035933
204	27635	5	8.1152854885207
204	35421	6	9.5136197782122
204	43027	7	11.089396042074
204	51055	8	12.696416048589
204	58794	9	13.398547857909
204	66725	10	9.6080346006896
204	75287	11	6.1898017776427
204	84416	12	7.7472305175146
204	92953	13	9.6946081257421
204	101128	14	11.82175016175
204	109143	15	13.67747951064
204	117147	16	13.796656469188
204	125187	17	13.638470669023
204	133594	18	13.024346845762
204	142467	19	14.207450408165
53	2	1	223.35
53	6202	2	223.35
53	13160	3	223.35
53	19701	4	223.35
53	27635	5	223.35
53	35421	6	223.35
53	43027	7	223.35
53	51055	8	223.35
53	58794	9	223.35
53	66725	10	223.35
53	75287	11	223.35
53	84416	12	220.38121422319
53	92953	13	210.6877913546
53	101128	14	198.86604119285
53	109143	15	185.18856168221
53	117147	16	171.39190521303
53	125187	17	157.753434544
53	133594	18	144.72908769824
53	142467	19	130.52163729008
52	2	1	815.15
52	6202	2	813.43474454449
52	13160	3	809.53675449509
52	19701	4	803.2407315915
52	27635	5	795.12544610298
52	35421	6	785.61182632477
52	43027	7	774.52243028269
52	51055	8	761.8260142341
52	58794	9	748.42746637619
52	66725	10	738.8194317755
52	75287	11	732.62962999786
52	84416	12	726.66833139883
52	92953	13	726.65
52	101128	14	726.65
52	109143	15	726.65
52	117147	16	726.65
52	125187	17	726.65
52	133594	18	726.65
52	142467	19	726.65
398	13160	3	2.381889597144
398	19701	4	4.3121444400606
398	27635	5	5.9120963548844
398	35421	6	5.7326359315938
398	43027	7	9.3880458407546
398	51055	8	6.7006737338367
398	58794	9	8.9533952355083
398	66725	10	4.0420075878775
398	75287	11	5.1701575691586
398	84416	12	2.1560889077507
398	92953	13	2.4257657358184
398	101128	14	0.973
398	109143	15	1.0267670595052
398	117147	16	0.973
398	125187	17	0.973
398	133594	18	6.0327279107809
398	142467	19	6.8936019011838
398	151684	20	6.2284130576964
398	160818	21	10.156989512836
398	169967	22	9.1834463196527
398	179113	23	3.043876949374
398	188197	24	3.3256376440034
397	13160	3	1.583816642873
397	19701	4	2.312641028408
397	27635	5	2.3827190293698
397	35421	6	1.796531952708
397	43027	7	2.596795658418
397	51055	8	1.4495681964792
397	58794	9	1.8335435747402
397	66725	10	0.47421780648998
397	75287	11	0.71545416237787
397	84416	12	-0.040698660165074
397	92953	13	0.026365109696055
397	101128	14	-0.68978550930042
397	109143	15	-0.31449327947769
397	117147	16	-4.3371252123422
397	125187	17	-4.5
397	133594	18	2.102037433465
397	142467	19	1.9882119231392
397	151684	20	1.4793556719786
397	160818	21	2.302391685592
397	169967	22	1.7551788957406
397	179113	23	0.18311886047474
397	188197	24	0.24290610979782
243	6202	2	1.3689486144111
243	13160	3	2.952765257284
243	19701	4	5.265406285692
243	27635	5	7.6481253150618
243	35421	6	9.4446572677698
243	43027	7	12.041452926188
243	51055	8	13.491021122667
243	58794	9	15.324564697407
243	66725	10	15.798782503897
243	75287	11	16.514236666275
243	84416	12	16.47353800611
243	92953	13	16.499903115806
243	101128	14	15.810117606506
243	109143	15	15.495624327028
243	117147	16	11.158499114686
243	125187	17	6.6584991146857
243	133594	18	8.7605365481507
243	142467	19	10.74874847129
243	151684	20	12.228104143268
243	160818	21	14.53049582886
243	169967	22	16.285674724601
243	179113	23	16.468793585076
243	188197	24	16.711699694874
131	2	1	715.15
131	6202	2	713.78105138559
131	13160	3	710.8282861283
131	19701	4	705.56287984261
131	27635	5	697.91475452755
131	35421	6	688.47009725978
131	43027	7	676.42864433359
131	51055	8	662.93762321093
131	58794	9	647.61305851352
131	66725	10	631.81427600962
131	75287	11	623.35
131	84416	12	623.35
131	92953	13	623.35
131	101128	14	623.35
131	109143	15	623.35
131	117147	16	623.35
131	125187	17	623.35
131	133594	18	620.75838780579
131	142467	19	610.01457303909
131	151684	20	597.78646889582
131	160818	21	583.25597306696
131	169967	22	566.97029834236
131	179113	23	550.50150475728
131	188197	24	533.78980506241
130	2	1	826.65
130	6202	2	826.65
130	13160	3	826.65
130	19701	4	826.65
130	27635	5	826.65
130	35421	6	826.65
130	43027	7	826.65
130	51055	8	826.65
130	58794	9	826.65
130	66725	10	826.65
130	75287	11	816.12003934335
130	84416	12	799.64650133724
130	92953	13	783.14659822143
130	101128	14	767.33648061493
130	109143	15	751.8408562879
130	117147	16	740.68235717321
130	125187	17	734.02385805853
130	133594	18	726.72102476699
130	142467	19	726.65
130	151684	20	726.65
130	160818	21	726.65
130	169967	22	726.65
130	179113	23	726.65
130	188197	24	726.65
312	13160	3	2.6267889491483
312	19701	4	4.996704922077
312	27635	5	6.1419869909023
312	35421	6	7.8253641844372
312	43027	7	7.0217186307323
312	51055	8	7.1126503648691
312	58794	9	10.300091763707
312	66725	10	2.1021600243999
312	75287	11	1.6876842925914
312	84416	12	0.973
312	92953	13	2.8983654277241
312	101128	14	1.3586502693086
312	109143	15	0.973
312	117147	16	0.973
312	125187	17	0.973
312	133594	18	4.9010604125536
312	142467	19	7.040967908022
312	151684	20	10.067709424033
312	160818	21	11.089351268368
312	169967	22	0.973
312	179113	23	3.6044802194669
312	188197	24	1.6238761602677
312	197767	25	0.973
312	207062	26	5.2456489789476
312	216997	27	0.973
312	226713	28	4.727030854178
312	237514	29	1.2107433365758
312	247275	30	0.973
312	259214	31	6.1808488889154
311	13160	3	1.7162051725201
311	19701	4	2.5530080158263
311	27635	5	2.3323004034348
311	35421	6	2.3961414442165
311	43027	7	1.7369166160468
311	51055	8	1.5283418053528
311	58794	9	2.0977254302824
311	66725	10	-0.037691858946346
311	75287	11	-0.14286459388677
311	84416	12	-0.79820754497778
311	92953	13	0.20189565434121
311	101128	14	-0.21647506104782
311	109143	15	-0.7257834531644
311	117147	16	-2.3020158644381
311	125187	17	-4.128323050146
311	133594	18	1.4692793915048
311	142467	19	1.950679934537
311	151684	20	2.4525414166041
311	160818	21	2.299470983202
311	169967	22	-0.35723820391577
311	179113	23	0.35185236884281
311	188197	24	-0.1604538703803
311	197767	25	-0.96993712915573
311	207062	26	0.80544053521007
311	216997	27	-0.46714534910861
311	226713	28	0.65399971094448
311	237514	29	-0.26576322803739
311	247275	30	-3.787414860815
311	259214	31	1.3416728091892
200	6202	2	1.5609465687769
200	13160	3	3.277151741297
200	19701	4	5.8301597571233
200	27635	5	8.1624601605581
200	35421	6	10.558601604775
200	43027	7	12.295518220821
200	51055	8	13.823860026174
200	58794	9	15.921585456457
200	66725	10	15.88389359751
200	75287	11	15.741029003624
200	84416	12	14.942821458646
200	92953	13	15.144717112987
200	101128	14	14.928242051939
200	109143	15	14.202458598775
200	117147	16	11.900442734337
200	125187	17	7.7721196841907
200	133594	18	9.2413990756955
200	142467	19	11.192079010233
200	151684	20	13.644620426837
200	160818	21	15.944091410039
200	169967	22	15.586853206123
200	179113	23	15.938705574966
200	188197	24	15.778251704585
200	197767	25	14.80831457543
200	207062	26	15.61375511064
200	216997	27	15.146609761531
200	226713	28	15.800609472476
200	237514	29	15.534846244438
200	247275	30	11.747431383623
200	259214	31	13.089104192812
45	2	1	815.15
45	6202	2	813.58905343122
45	13160	3	810.31190168993
45	19701	4	804.4817419328
45	27635	5	796.31928177224
45	35421	6	785.76068016747
45	43027	7	773.46516194665
45	51055	8	759.64130192047
45	58794	9	743.71971646402
45	66725	10	727.85417713675
45	75287	11	723.35
45	84416	12	723.35
45	92953	13	723.35
45	101128	14	723.35
45	109143	15	723.35
45	117147	16	723.35
45	125187	17	723.35
45	133594	18	724.85089612979
45	142467	19	735.58948586392
45	151684	20	749.23410629075
45	160818	21	765.17819770079
45	169967	22	780.76505090692
45	179113	23	796.70375648188
45	188197	24	812.48200818647
45	197767	25	826.01869255517
45	207062	26	826.65
45	216997	27	826.65
45	226713	28	826.65
45	237514	29	826.65
45	247275	30	826.65
45	259214	31	826.65
44	2	1	326.65
44	6202	2	326.65
44	13160	3	326.65
44	19701	4	326.65
44	27635	5	326.65
44	35421	6	326.65
44	43027	7	326.65
44	51055	8	326.65
44	58794	9	326.65
44	66725	10	326.37916816239
44	75287	11	312.91479386288
44	84416	12	297.97197240424
44	92953	13	282.82725529125
44	101128	14	267.89901323931
44	109143	15	253.69655464054
44	117147	16	241.7961119062
44	125187	17	234.02399222201
44	133594	18	225.11517311702
44	142467	19	223.35
44	151684	20	223.35
44	160818	21	223.35
44	169967	22	223.35
44	179113	23	223.35
44	188197	24	223.35
44	197767	25	226.56448759196
44	207062	26	242.08407787254
44	216997	27	257.23068763407
44	226713	28	273.03129710654
44	237514	29	288.56614335098
44	247275	30	300.3135747346
44	259214	31	313.40267892742
440	13160	3	2.3881097837276
440	19701	4	4.8768049678668
440	27635	5	6.2124026457037
440	35421	6	7.520893360234
440	43027	7	8.028371464953
440	51055	8	8.2116812612698
440	58794	9	0.973
440	66725	10	0.973
440	75287	11	0.973
440	84416	12	4.6491200852252
440	92953	13	6.4593045870746
440	101128	14	5.8274225008632
440	109143	15	7.4610991371018
440	117147	16	10.784179580962
440	125187	17	5.2363251717986
440	133594	18	0.973
440	142467	19	0.973
440	151684	20	0.973
440	160818	21	0.973
440	169967	22	0.973
440	179113	23	2.806158526262
440	188197	24	3.5810929678727
440	197767	25	5.226931477184
440	207062	26	4.5487720458308
440	216997	27	4.7998241072434
440	226713	28	8.7799100434626
440	237514	29	7.1812743820284
440	247275	30	6.355406549303
440	259214	31	5.3158209989348
439	13160	3	1.5296135549434
439	19701	4	2.5660466220463
439	27635	5	2.4098704894772
439	35421	6	2.3259981652023
439	43027	7	2.0531103350688
439	51055	8	1.7960516993888
439	58794	9	-1.0214353761983
439	66725	10	-3.1928389215531
439	75287	11	-4.5
439	84416	12	1.7938292987179
439	92953	13	2.1236870912602
439	101128	14	1.5406996498117
439	109143	15	1.8031093417434
439	117147	16	2.3663311781362
439	125187	17	0.77948283751456
439	133594	18	-2.6587941838807
439	142467	19	-4.3319998913833
439	151684	20	-3.6364972977783
439	160818	21	-3.003491427253
439	169967	22	-1.319618766467
439	179113	23	2.1008259876864
439	188197	24	1.8720458762022
439	197767	25	2.1833249288378
439	207062	26	1.4406770631438
439	216997	27	1.3145985436393
439	226713	28	2.3484999760054
439	237514	29	1.5566726801451
439	247275	30	1.1710299759896
439	259214	31	0.81251055626199
264	6202	2	1.529956558696
264	13160	3	3.0595701136393
264	19701	4	5.6256167356856
264	27635	5	8.0354872251628
264	35421	6	10.361485390365
264	43027	7	12.414595725434
264	51055	8	14.210647424823
264	58794	9	13.189212048624
264	66725	10	9.9963731270713
264	75287	11	5.4963731270713
264	84416	12	7.2902024257892
264	92953	13	9.4138895170494
264	101128	14	10.954589166861
264	109143	15	12.757698508605
264	117147	16	15.124029686741
264	125187	17	15.903512524255
264	133594	18	13.244718340375
264	142467	19	8.9127184489913
264	151684	20	5.276221151213
264	160818	21	2.27272972396
264	169967	22	0.95311095749299
264	179113	23	3.0539369451794
264	188197	24	4.9259828213816
264	197767	25	7.1093077502194
264	207062	26	8.5499848133632
264	216997	27	9.8645833570025
264	226713	28	12.213083333008
264	237514	29	13.769756013153
264	247275	30	14.940785989143
264	259214	31	15.753296545405
173	2	1	726.65
173	6202	2	726.65
173	13160	3	726.65
173	19701	4	726.65
173	27635	5	726.65
173	35421	6	726.65
173	43027	7	726.65
173	51055	8	726.65
173	58794	9	726.65
173	66725	10	726.65
173	75287	11	726.65
173	84416	12	726.65
173	92953	13	726.65
173	101128	14	726.65
173	109143	15	726.65
173	117147	16	726.65
173	125187	17	726.65
173	133594	18	726.65
173	142467	19	726.65
173	151684	20	726.65
173	160818	21	726.65
173	169967	22	726.5619177691
173	179113	23	725.81328396764
173	188197	24	721.95034832157
173	197767	25	714.85803455532
173	207062	26	706.30804974195
173	216997	27	696.44346638495
173	226713	28	684.23038305194
173	237514	29	670.46062703879
173	247275	30	655.51984104965
173	259214	31	639.76654450424
172	2	1	234.85
172	6202	2	236.3799565587
172	13160	3	239.43952667234
172	19701	4	245.06514340802
172	27635	5	253.10063063318
172	35421	6	263.46211602355
172	43027	7	275.87671174898
172	51055	8	290.08735917381
172	58794	9	303.27657122243
172	66725	10	313.2729443495
172	75287	11	318.76931747657
172	84416	12	326.05951990236
172	92953	13	335.47340941941
172	101128	14	346.42799858627
172	109143	15	359.18569709488
172	117147	16	374.30972678162
172	125187	17	390.21323930587
172	133594	18	403.45795764625
172	142467	19	412.37067609524
172	151684	20	417.64689724645
172	160818	21	419.91962697041
172	169967	22	420.86657561633
172	179113	23	423.77786005393
172	188197	24	426.40709309692
172	197767	25	426.65
172	207062	26	426.65
172	216997	27	426.65
172	226713	28	426.65
172	237514	29	426.65
172	247275	30	426.65
172	259214	31	426.65
400	13160	3	2.4497556493486
400	19701	4	3.8426565486837
400	27635	5	3.7737876518198
400	35421	6	5.253352695551
400	43027	7	7.400676950095
400	51055	8	7.6781922426142
400	58794	9	11.260936256414
400	66725	10	0.973
400	75287	11	0.973
400	84416	12	5.9970431823719
400	92953	13	2.5532698247009
400	101128	14	0.973
400	109143	15	0.973
400	117147	16	1.4542056728062
400	125187	17	6.425028982231
400	133594	18	0.973
400	142467	19	3.7673760892665
400	151684	20	0.973
400	160818	21	3.5268085217343
400	169967	22	0.973
400	179113	23	2.3966362489681
400	188197	24	0.973
400	197767	25	0.973
400	207062	26	4.907232855099
400	216997	27	6.545827049544
400	226713	28	6.2213097118199
400	237514	29	8.5062748862691
400	247275	30	5.7862862301762
400	259214	31	5.4434408576924
400	269082	32	1.3560954351582
400	279513	33	2.6517744768525
399	13160	3	1.5933694279753
399	19701	4	2.0112127812579
399	27635	5	1.4656252268236
399	35421	6	1.8215848414926
399	43027	7	2.2171429459471
399	51055	8	1.9157469786936
399	58794	9	2.5139609878184
399	66725	10	-0.58546932584397
399	75287	11	-0.31194368489087
399	84416	12	1.0465903849574
399	92953	13	0.10190904904157
399	101128	14	-0.4441038752906
399	109143	15	-0.53940424970351
399	117147	16	-0.17562700719573
399	125187	17	1.1532719331793
399	133594	18	-0.38589530461468
399	142467	19	0.42919928540941
399	151684	20	-0.65225825915113
399	160818	21	0.3791240936378
399	169967	22	-0.85702510385308
399	179113	23	0.095086808119179
399	188197	24	-4.3155614450962
399	197767	25	-4.5
399	207062	26	1.9115864618216
399	216997	27	2.1338738595601
399	226713	28	1.6503413632512
399	237514	29	2.0533005590551
399	247275	30	1.0779825886744
399	259214	31	0.89442657963373
399	269082	32	-0.21801313196775
399	279513	33	0.1354942018399
244	6202	2	1.4998549617594
244	13160	3	3.0932243897347
244	19701	4	5.1044371709926
244	27635	5	6.5700623978162
244	35421	6	8.3916472393088
244	43027	7	10.608790185256
244	51055	8	12.52453716395
244	58794	9	15.038498151768
244	66725	10	14.453028825924
244	75287	11	14.141085141033
244	84416	12	15.187675525991
244	92953	13	15.289584575032
244	101128	14	14.845480699742
244	109143	15	14.306076450038
244	117147	16	14.130449442842
244	125187	17	15.283721376022
244	133594	18	14.897826071407
244	142467	19	15.327025356816
244	151684	20	14.674767097665
244	160818	21	15.053891191303
244	169967	22	14.19686608745
244	179113	23	14.291952895569
244	188197	24	9.9763914504729
244	197767	25	5.4763914504729
244	207062	26	7.3879779122945
244	216997	27	9.5218517718546
244	226713	28	11.172193135106
244	237514	29	13.225493694161
244	247275	30	14.303476282835
244	259214	31	15.197902862469
244	269082	32	14.979889730501
244	279513	33	15.115383932341
133	2	1	615.15
133	6202	2	613.65014503824
133	13160	3	610.55692064851
133	19701	4	605.45248347751
133	27635	5	598.8824210797
133	35421	6	590.49077384039
133	43027	7	579.88198365513
133	51055	8	567.35744649118
133	58794	9	552.31894833941
133	66725	10	537.86591951349
133	75287	11	523.72483437246
133	84416	12	508.53715884647
133	92953	13	493.24757427143
133	101128	14	478.40209357169
133	109143	15	464.09601712166
133	117147	16	449.96556767881
133	125187	17	434.68184630279
133	133594	18	423.40003900825
133	142467	19	423.35
133	151684	20	423.35
133	160818	21	423.35
133	169967	22	423.35
133	179113	23	423.35
133	188197	24	423.35
133	197767	25	423.35
133	207062	26	425.26838826796
133	216997	27	434.48309498251
133	226713	28	445.65528811762
133	237514	29	458.88078181178
133	247275	30	473.18425809462
133	259214	31	488.38216095708
133	269082	32	503.36205068759
133	279513	33	518.47743461993
132	2	1	726.65
132	6202	2	726.65
132	13160	3	726.65
132	19701	4	726.65
132	27635	5	726.65
132	35421	6	726.65
132	43027	7	726.65
132	51055	8	726.65
132	58794	9	726.65
132	66725	10	726.65
132	75287	11	726.65
132	84416	12	726.65
132	92953	13	726.65
132	101128	14	726.65
132	109143	15	726.65
132	117147	16	726.65
132	125187	17	726.65
132	133594	18	720.60027305777
132	142467	19	705.27699487457
132	151684	20	690.6022277769
132	160818	21	675.5483365856
132	169967	22	661.35147049815
132	179113	23	647.05951760258
132	188197	24	637.08312615211
132	197767	25	631.60673470164
132	207062	26	624.75896703922
132	216997	27	623.35
132	226713	28	623.35
132	237514	29	623.35
132	247275	30	623.35
132	259214	31	623.35
132	269082	32	623.35
132	279513	33	623.35
434	13160	3	2.932165777894
434	19701	4	3.5523321228145
434	27635	5	3.9667870009554
434	35421	6	5.4014964715535
434	43027	7	5.3451898018323
434	51055	8	7.3634107852433
434	58794	9	6.9008829901091
434	66725	10	9.9353527044173
434	75287	11	1.4534296312873
434	84416	12	2.3110015061599
434	92953	13	4.3502378910926
434	101128	14	0.973
434	109143	15	0.973
434	117147	16	4.925044184297
434	125187	17	3.0148001859934
434	133594	18	1.5564119555459
434	142467	19	2.5810110405469
434	151684	20	0.973
434	160818	21	0.973
434	169967	22	0.973
434	179113	23	0.973
434	188197	24	0.973
434	197767	25	0.973
434	207062	26	3.9341888649166
434	216997	27	4.5940735808061
434	226713	28	5.9254808963346
434	237514	29	7.1514522478329
434	247275	30	9.9971120804816
434	259214	31	8.1614202757849
434	269082	32	1.6139908804847
434	279513	33	1.5282060401843
433	13160	3	1.8293019986944
433	19701	4	1.6702538255369
433	27635	5	1.5024545326829
433	35421	6	1.8164076185087
433	43027	7	1.4846706941957
433	51055	8	1.8916518694023
433	58794	9	1.4985727415653
433	66725	10	2.049248764175
433	75287	11	-0.1990741884309
433	84416	12	0.030540745728649
433	92953	13	0.54185868413188
433	101128	14	-0.44925994549412
433	109143	15	-0.60270367639605
433	117147	16	0.71618221513927
433	125187	17	0.20140812217724
433	133594	18	-0.1765012285905
433	142467	19	0.091093285405076
433	151684	20	-0.76519479001872
433	160818	21	-1.1693935926441
433	169967	22	-1.9792266231899
433	179113	23	-3.5795404312923
433	188197	24	-1.0417964668518
433	197767	25	-2.6346232338198
433	207062	26	1.6545461049769
433	216997	27	1.6110171044245
433	226713	28	1.8233072356554
433	237514	29	1.9075080946786
433	247275	30	2.3640267206589
433	259214	31	1.5873443667535
433	269082	32	-0.15538558217231
433	279513	33	-0.17513959156349
261	6202	2	1.8865424470045
261	13160	3	3.7158444456989
261	19701	4	5.3860982712358
261	27635	5	6.8885528039187
261	35421	6	8.7049604224274
261	43027	7	10.189631116623
261	51055	8	12.081282986025
261	58794	9	13.579855727591
261	66725	10	15.629104491766
261	75287	11	15.430030303335
261	84416	12	15.460571049063
261	92953	13	16.002429733195
261	101128	14	15.553169787701
261	109143	15	14.950466111305
261	117147	16	15.666648326444
261	125187	17	15.868056448622
261	133594	18	15.691555220031
261	142467	19	15.782648505436
261	151684	20	15.017453715417
261	160818	21	13.848060122773
261	169967	22	11.868833499583
261	179113	23	8.2892930682912
261	188197	24	7.2474966014394
261	197767	25	4.6128733676196
261	207062	26	6.2674194725965
261	216997	27	7.878436577021
261	226713	28	9.7017438126764
261	237514	29	11.609251907355
261	247275	30	13.973278628014
261	259214	31	15.560622994767
261	269082	32	15.405237412595
261	279513	33	15.230097821032
167	2	1	34.85
167	6202	2	36.736542447004
167	13160	3	40.452386892703
167	19701	4	45.838485163939
167	27635	5	52.727037967858
167	35421	6	61.431998390285
167	43027	7	71.621629506908
167	51055	8	83.702912492934
167	58794	9	97.282768220524
167	66725	10	112.91187271229
167	75287	11	128.34190301562
167	84416	12	143.80247406469
167	92953	13	159.80490379788
167	101128	14	175.35807358558
167	109143	15	190.30853969689
167	117147	16	205.97518802333
167	125187	17	221.79747251643
167	133594	18	223.35
167	142467	19	223.35
167	151684	20	223.35
167	160818	21	223.35
167	169967	22	223.35
167	179113	23	223.35
167	188197	24	223.35
167	197767	25	223.35
167	207062	26	220.52860531499
167	216997	27	212.65268537784
167	226713	28	202.95094156516
167	237514	29	191.3416896578
167	247275	30	177.36841102979
167	259214	31	161.80778803502
167	269082	32	146.40255062243
167	279513	33	131.1724528014
166	2	1	523.35
166	6202	2	523.35
166	13160	3	523.35
166	19701	4	523.35
166	27635	5	523.35
166	35421	6	523.35
166	43027	7	523.35
166	51055	8	523.35
166	58794	9	523.35
166	66725	10	523.35
166	75287	11	523.35
166	84416	12	523.35
166	92953	13	523.35
166	101128	14	523.35
166	109143	15	523.35
166	117147	16	523.35
166	125187	17	523.04478251595
166	133594	18	507.96520030801
166	142467	19	492.18255180258
166	151684	20	477.16509808716
166	160818	21	463.31703796439
166	169967	22	451.4482044648
166	179113	23	443.15891139651
166	188197	24	435.91141479507
166	197767	25	431.29854142745
166	207062	26	426.68892280136
166	216997	27	426.65
166	226713	28	426.65
166	237514	29	426.65
166	247275	30	426.65
166	259214	31	426.65
166	269082	32	426.65
166	279513	33	426.65
350	13160	3	3.4259552534021
350	19701	4	5.0261409255146
350	27635	5	6.7516457791359
350	35421	6	6.279491558039
350	43027	7	5.5698263027539
350	51055	8	0.973
350	58794	9	4.4090789709485
350	66725	10	0.973
350	75287	11	3.3129806708789
350	84416	12	0.973
350	92953	13	3.959428000267
350	101128	14	5.9607587666605
350	109143	15	6.9568659359134
350	117147	16	8.9719260034111
350	125187	17	0.973
350	133594	18	2.2075423072736
350	142467	19	2.1580843139481
350	151684	20	0.973
350	160818	21	0.973
350	169967	22	0.973
350	179113	23	0.973
350	188197	24	0.973
350	197767	25	1.9274833512526
350	207062	26	3.6933235544397
350	216997	27	3.1808448579525
350	226713	28	4.4631168466785
350	237514	29	5.7295758056498
350	247275	30	7.1223335910864
350	259214	31	4.3382772596824
350	269082	32	2.7387550900837
350	279513	33	0.973
350	289024	34	3.288183821794
350	298922	35	0.973
349	13160	3	2.2375093692681
349	19701	4	2.3649280806305
349	27635	5	2.4474117824575
349	35421	6	1.7928180593066
349	43027	7	1.3082176150223
349	51055	8	-0.26653328821994
349	58794	9	0.84267849971075
349	66725	10	-0.54456869838759
349	75287	11	0.4809409869602
349	84416	12	-9
349	92953	13	1.9966723748483
349	101128	14	2.3792441955302
349	109143	15	2.2032720476622
349	117147	16	2.3882219691528
349	125187	17	-0.66822247384116
349	133594	18	0.13280009068549
349	142467	19	0.11094849882647
349	151684	20	-0.74212179033578
349	160818	21	-4.5
349	169967	22	-4.5
349	179113	23	-1.7374037043087
349	188197	24	-0.22643867813904
349	197767	25	1.6432779403171
349	207062	26	2.3513256142614
349	216997	27	1.3414957308909
349	226713	28	1.7029545520898
349	237514	29	1.872764294059
349	247275	30	1.998829088849
349	259214	31	0.86397683740429
349	269082	32	0.29328383738175
349	279513	33	-0.8073821186088
349	289024	34	0.5009204171598
349	298922	35	-0.31013828623109
219	6202	2	1.6951142302249
219	13160	3	3.9326235994929
219	19701	4	6.2975516801234
219	27635	5	8.7449634625809
219	35421	6	10.537781521888
219	43027	7	11.84599913691
219	51055	8	11.57946584869
219	58794	9	12.422144348401
219	66725	10	11.877575650013
219	75287	11	12.358516636973
219	84416	12	3.3585166369732
219	92953	13	5.3551890118215
219	101128	14	7.7344332073516
219	109143	15	9.9377052550138
219	117147	16	12.325927224167
219	125187	17	11.657704750325
219	133594	18	11.790504841011
219	142467	19	11.901453339837
219	151684	20	11.159331549502
219	160818	21	6.6593315495016
219	169967	22	2.1593315495016
219	179113	23	0.42192784519293
219	188197	24	0.1954891670539
219	197767	25	1.838767107371
219	207062	26	4.1900927216324
219	216997	27	5.5315884525233
219	226713	28	7.2345430046131
219	237514	29	9.1073072986721
219	247275	30	11.106136387521
219	259214	31	11.970113224925
219	269082	32	12.263397062307
219	279513	33	11.456014943698
219	289024	34	11.956935360858
219	298922	35	11.646797074627
83	2	1	715.15
83	6202	2	713.45488576978
83	13160	3	709.52226217028
83	19701	4	703.22471049016
83	27635	5	694.47974702758
83	35421	6	683.94196550569
83	43027	7	672.09596636878
83	51055	8	660.51650052009
83	58794	9	648.09435617169
83	66725	10	636.21678052168
83	75287	11	624.57252613347
83	84416	12	623.50120348108
83	92953	13	623.35
83	101128	14	623.35
83	109143	15	623.35
83	117147	16	623.35
83	125187	17	623.35
83	133594	18	623.35
83	142467	19	623.35
83	151684	20	623.35
83	160818	21	623.35
83	169967	22	623.35
83	179113	23	623.35
83	188197	24	623.35
83	197767	25	623.57169134646
83	207062	26	625.46238238769
83	216997	27	630.71903032407
83	226713	28	637.95357332869
83	237514	29	647.06088062736
83	247275	30	658.16701701488
83	259214	31	670.13713023981
83	269082	32	682.40052730211
83	279513	33	693.85654224581
83	289024	34	705.81347760667
83	298922	35	717.4602746813
82	2	1	326.65
82	6202	2	326.65
82	13160	3	326.65
82	19701	4	326.65
82	27635	5	326.65
82	35421	6	326.65
82	43027	7	326.65
82	51055	8	326.65
82	58794	9	326.65
82	66725	10	326.65
82	75287	11	324.42087688911
82	84416	12	321.30842436756
82	92953	13	315.96455823591
82	101128	14	308.23012502856
82	109143	15	298.29241977354
82	117147	16	285.96649254938
82	125187	17	274.30878779905
82	133594	18	262.51828295804
82	142467	19	250.6168296182
82	151684	20	239.4574980687
82	160818	21	232.7981665192
82	169967	22	230.6388349697
82	179113	23	230.21690712451
82	188197	24	230.02141795745
82	197767	25	228.19816057475
82	207062	26	224.64257056738
82	216997	27	223.35
82	226713	28	223.35
82	237514	29	223.35
82	247275	30	223.35
82	259214	31	223.35
82	269082	32	223.35
82	279513	33	223.35
82	289024	34	223.35
82	298922	35	223.35
494	35421	6	3.2260415775486
494	43027	7	4.3738764976582
494	51055	8	5.8127087743699
494	58794	9	7.6151508494032
494	66725	10	7.1816529602039
494	75287	11	8.7222422600249
494	84416	12	1.2240263766132
494	92953	13	0.973
494	101128	14	0.973
494	109143	15	2.9037458148134
494	117147	16	4.7775900437032
494	125187	17	0.973
494	133594	18	4.9384899941233
494	142467	19	0.973
494	151684	20	4.4843935383391
494	160818	21	1.6762543868835
494	169967	22	0.973
494	179113	23	0.973
494	188197	24	4.2324476604269
494	197767	25	1.8287890447203
494	207062	26	0.973
494	216997	27	2.1727336971464
494	226713	28	4.4420090392913
494	237514	29	0.973
494	247275	30	3.5789465129437
494	259214	31	0.973
494	269082	32	2.9588986684392
494	279513	33	1.4471858492955
494	289024	34	3.5850208756076
494	298922	35	3.8199213684641
494	308318	36	1.41349775102
493	35421	6	2.0340808888432
493	43027	7	2.0535218579695
493	51055	8	2.1705647335853
493	58794	9	2.3339567731367
493	66725	10	1.7949477385497
493	75287	11	1.9441286714765
493	84416	12	-0.24117760881782
493	92953	13	-0.98845269129433
493	101128	14	-1.0433197669086
493	109143	15	0.34747665668751
493	117147	16	0.88797593359838
493	125187	17	-0.77134722187337
493	133594	18	0.92334629473329
493	142467	19	-0.92974211886179
493	151684	20	0.79417553774374
493	160818	21	-0.086795911889133
493	169967	22	-0.95779971075652
493	179113	23	-0.70274360333841
493	188197	24	0.80012042228882
493	197767	25	-0.013764304793094
493	207062	26	-0.35540469561836
493	216997	27	0.1124437506814
493	226713	28	0.81641229417738
493	237514	29	-0.80542933814474
493	247275	30	0.55518137184428
493	259214	31	-0.87824952404176
493	269082	32	0.38023140230419
493	279513	33	-0.13730166919084
493	289024	34	0.56264636068592
493	298922	35	0.59399153425039
493	308318	36	-0.1665504415277
474	27635	5	1.8854387812782
474	35421	6	3.9195196701214
474	43027	7	5.9730415280908
474	51055	8	8.1436062616762
474	58794	9	10.477563034813
474	66725	10	12.272510773363
474	75287	11	14.216639444839
474	84416	12	13.975461836021
474	92953	13	12.987009144727
474	101128	14	11.943689377818
474	109143	15	12.291166034506
474	117147	16	13.179141968104
474	125187	17	12.407794746231
474	133594	18	13.331141040964
474	142467	19	12.401398922102
474	151684	20	13.195574459846
474	160818	21	13.108778547957
474	169967	22	12.1509788372
474	179113	23	11.448235233862
474	188197	24	12.248355656151
474	197767	25	12.234591351358
474	207062	26	11.879186655739
474	216997	27	11.991630406421
474	226713	28	12.808042700598
474	237514	29	12.002613362453
474	247275	30	12.557794734298
474	259214	31	11.679545210256
474	269082	32	12.05977661256
474	279513	33	11.922474943369
474	289024	34	12.485121304055
474	298922	35	13.079112838306
474	308318	36	12.912562396778
464	19701	4	923.35
464	27635	5	923.35
464	35421	6	923.35
464	43027	7	923.35
464	51055	8	923.35
464	58794	9	923.35
464	66725	10	923.35
464	75287	11	923.35
464	84416	12	923.35
464	92953	13	923.35
464	101128	14	914.85552014725
464	109143	15	902.56435411275
464	117147	16	889.38521214464
464	125187	17	876.97741739841
464	133594	18	863.64627635745
464	142467	19	851.24487743534
464	151684	20	838.0493029755
464	160818	21	824.94052442754
464	169967	22	812.78954559034
464	179113	23	801.34131035648
464	188197	24	789.09295470033
464	197767	25	776.85836334897
464	207062	26	764.97917669323
464	216997	27	752.98754628681
464	226713	28	740.17950358621
464	237514	29	728.17689022376
464	247275	30	715.61909548946
464	259214	31	703.9395502792
464	269082	32	691.87977366664
464	279513	33	679.95729872328
464	289024	34	667.47217741922
464	298922	35	654.39306458091
464	308318	36	641.48050218414
463	19701	4	615.15
463	27635	5	613.26456121872
463	35421	6	609.3450415486
463	43027	7	603.37200002051
463	51055	8	595.22839375883
463	58794	9	584.75083072402
463	66725	10	572.47831995066
463	75287	11	558.26168050582
463	84416	12	544.2862186698
463	92953	13	531.29920952507
463	101128	14	526.65
463	109143	15	526.65
463	117147	16	526.65
463	125187	17	526.65
463	133594	18	526.65
463	142467	19	526.65
463	151684	20	526.65
463	160818	21	526.65
463	169967	22	526.65
463	179113	23	526.65
463	188197	24	526.65
463	197767	25	526.65
463	207062	26	526.65
463	216997	27	526.65
463	226713	28	526.65
463	237514	29	526.65
463	247275	30	526.65
463	259214	31	526.65
463	269082	32	526.65
463	279513	33	526.65
463	289024	34	526.65
463	298922	35	526.65
463	308318	36	526.65
444	13160	3	2.8440564178375
444	19701	4	4.7259930101105
444	27635	5	6.8823797784322
444	35421	6	5.9030857023745
444	43027	7	7.5369552144499
444	51055	8	8.1670012698978
444	58794	9	0.973
444	66725	10	0.973
444	75287	11	0.973
444	84416	12	3.7475757709281
444	92953	13	5.6663931379345
444	101128	14	4.8066212530274
444	109143	15	8.3882299618207
444	117147	16	6.4467091477779
444	125187	17	9.4747464292578
444	133594	18	8.2321481081132
444	142467	19	0.973
444	151684	20	5.8065281300425
444	160818	21	2.5603728818415
444	169967	22	0.973
444	179113	23	3.4912841946763
444	188197	24	2.1526381703908
444	197767	25	1.8812284455816
444	207062	26	1.7423999767457
444	216997	27	1.5744408142506
444	226713	28	2.0056761028721
444	237514	29	7.3052914746694
444	247275	30	0.973
444	259214	31	7.0729878095862
444	269082	32	0.973
444	279513	33	5.7804735142854
444	289024	34	0.973
444	298922	35	1.307058715718
444	308318	36	3.4108034839554
443	13160	3	1.7205195409479
443	19701	4	2.2800610841252
443	27635	5	2.5634366825223
443	35421	6	1.6950911654159
443	43027	7	1.9281887229765
443	51055	8	1.8136877408251
443	58794	9	-0.51830146396509
443	66725	10	-4.5
443	75287	11	-4.5
443	84416	12	1.5848666319624
443	92953	13	2.0880865832092
443	101128	14	1.3722257165937
443	109143	15	2.2968007840216
443	117147	16	1.4045393156353
443	125187	17	1.9892747174017
443	133594	18	1.4629355080935
443	142467	19	-0.74858413040638
443	151684	20	0.85164852503221
443	160818	21	0.048231327650139
443	169967	22	-0.54805536761414
443	179113	23	0.28993274329696
443	188197	24	-0.043641123455018
443	197767	25	-0.10904227267019
443	207062	26	-0.14093888816424
443	216997	27	-0.18014496201649
443	226713	28	-0.067318339948542
443	237514	29	1.1782988459803
443	247275	30	-1.263531830837
443	259214	31	1.1348479201784
443	269082	32	-1.0924674963811
443	279513	33	0.84134682889562
443	289024	34	-0.4766175405588
443	298922	35	-0.2490723764291
443	308318	36	0.27884582241532
266	6202	2	2.0152664079564
266	13160	3	3.7357859489042
266	19701	4	6.0158470330294
266	27635	5	8.5792837155517
266	35421	6	10.274374880968
266	43027	7	12.202563603944
266	51055	8	14.016251344769
266	58794	9	13.497949880804
266	66725	10	8.9979498808042
266	75287	11	4.4979498808042
266	84416	12	6.0828165127665
266	92953	13	8.1709030959758
266	101128	14	9.5431288125694
266	109143	15	11.839929596591
266	117147	16	13.244468912226
266	125187	17	15.233743629628
266	133594	18	16.696679137722
266	142467	19	15.948095007315
266	151684	20	16.799743532347
266	160818	21	16.847974859998
266	169967	22	16.299919492383
266	179113	23	16.58985223568
266	188197	24	16.546211112225
266	197767	25	16.437168839555
266	207062	26	16.296229951391
266	216997	27	16.116084989374
266	226713	28	16.048766649426
266	237514	29	17.227065495406
266	247275	30	15.963533664569
266	259214	31	17.098381584748
266	269082	32	16.005914088367
266	279513	33	16.847260917262
266	289024	34	16.370643376703
266	298922	35	16.121571000274
266	308318	36	16.40041682269
177	2	1	115.15
177	6202	2	113.13473359204
177	13160	3	109.39894764314
177	19701	4	103.38310061011
177	27635	5	94.803816894558
177	35421	6	84.529442013591
177	43027	7	72.326878409646
177	51055	8	58.310627064877
177	58794	9	44.812677184073
177	66725	10	35.814727303269
177	75287	11	31.316777422465
177	84416	12	26.716962342599
177	92953	13	26.65
177	101128	14	26.65
177	109143	15	26.65
177	117147	16	26.65
177	125187	17	26.65
177	133594	18	26.65
177	142467	19	26.65
177	151684	20	26.65
177	160818	21	26.65
177	169967	22	26.65
177	179113	23	26.65
177	188197	24	26.65
177	197767	25	26.65
177	207062	26	26.65
177	216997	27	26.65
177	226713	28	26.65
177	237514	29	26.65
177	247275	30	26.65
177	259214	31	26.65
177	269082	32	38.1398337778
177	279513	33	54.987094695062
177	289024	34	71.357738071765
177	298922	35	87.479309072039
177	308318	36	103.87972589473
176	2	1	626.65
176	6202	2	626.65
176	13160	3	626.65
176	19701	4	626.65
176	27635	5	626.65
176	35421	6	626.65
176	43027	7	626.65
176	51055	8	626.65
176	58794	9	626.65
176	66725	10	626.65
176	75287	11	626.65
176	84416	12	629.27069060034
176	92953	13	637.43694218628
176	101128	14	646.98007099885
176	109143	15	658.82000059544
176	117147	16	672.06446950766
176	125187	17	687.29821313729
176	133594	18	703.99489227501
176	142467	19	719.94298728233
176	151684	20	736.74273081468
176	160818	21	753.59070567467
176	169967	22	769.89062516706
176	179113	23	786.48047740274
176	188197	24	803.02668851496
176	197767	25	819.46385735452
176	207062	26	835.76008730591
176	216997	27	851.87617229528
176	226713	28	867.92493894471
176	237514	29	885.15200444012
176	247275	30	901.11553810469
176	259214	31	918.21391968943
176	269082	32	923.35
176	279513	33	923.35
176	289024	34	923.35
176	298922	35	923.35
176	308318	36	923.35
356	13160	3	2.4247111969187
356	19701	4	3.4059163417038
356	27635	5	4.5262686433835
356	35421	6	7.0346525616323
356	43027	7	8.609461222601
356	51055	8	6.452482162463
356	58794	9	0.973
356	66725	10	0.973
356	75287	11	0.973
356	84416	12	7.2875957571147
356	92953	13	7.9926310584897
356	101128	14	5.412676666584
356	109143	15	3.8834804120462
356	117147	16	0.973
356	125187	17	2.8977888721104
356	133594	18	3.042643328537
356	142467	19	0.973
356	151684	20	0.973
356	160818	21	4.7332391387055
356	169967	22	4.9909682391259
356	179113	23	6.6148259029095
356	188197	24	4.3681814866744
356	197767	25	4.3354966655283
356	207062	26	2.2221885674289
356	216997	27	0.973
356	226713	28	0.973
356	237514	29	0.973
356	247275	30	7.9202626444147
356	259214	31	6.5191067966518
356	269082	32	2.1236435396274
356	279513	33	2.8730117246539
356	289024	34	1.4078085599109
356	298922	35	1.4487902132915
356	308318	36	0.973
356	318408	37	3.8972882207704
355	13160	3	1.3640713949688
355	19701	4	1.6484078801703
355	27635	5	1.8217439678498
355	35421	6	2.397175769927
355	43027	7	2.397207119083
355	51055	8	1.4179885152219
355	58794	9	-1.0505202988395
355	66725	10	-1.2970320028333
355	75287	11	-4.2483200796065
355	84416	12	2.5732401516056
355	92953	13	2.2566090944223
355	101128	14	1.1614194788003
355	109143	15	0.60771913910285
355	117147	16	-0.64351867912337
355	125187	17	0.31471006902866
355	133594	18	0.34191928680521
355	142467	19	-2.4812132637598
355	151684	20	-4.5
355	160818	21	1.6841966199689
355	169967	22	1.4858207728481
355	179113	23	1.7982599092182
355	188197	24	0.86806234734824
355	197767	25	0.78149489830248
355	207062	26	0.0935605897801
355	216997	27	-0.60718263334129
355	226713	28	-1.1675114857835
355	237514	29	-2.7795156345353
355	247275	30	2.3870254355017
355	259214	31	1.5658419515925
355	269082	32	0.080627344595268
355	279513	33	0.3140558059793
355	289024	34	-0.16185834023636
355	298922	35	-0.14558675438166
355	308318	36	-0.45125559871085
355	318408	37	0.65705831279047
222	6202	2	2.1130978513975
222	13160	3	3.4771692463662
222	19701	4	5.1255771265365
222	27635	5	6.9473210943863
222	35421	6	9.3444968643133
222	43027	7	11.741703983396
222	51055	8	13.159692498618
222	58794	9	12.109172199779
222	66725	10	10.812140196945
222	75287	11	6.5638201173388
222	84416	12	9.1370602689444
222	92953	13	11.393669363367
222	101128	14	12.555088842167
222	109143	15	13.16280798127
222	117147	16	12.519289302146
222	125187	17	12.833999371175
222	133594	18	13.17591865798
222	142467	19	10.69470539422
222	151684	20	6.1947053942205
222	160818	21	7.8789020141894
222	169967	22	9.3647227870374
222	179113	23	11.162982696256
222	188197	24	12.031045043604
222	197767	25	12.812539941906
222	207062	26	12.906100531686
222	216997	27	12.298917898345
222	226713	28	11.131406412562
222	237514	29	8.3518907780263
222	247275	30	10.738916213528
222	259214	31	12.30475816512
222	269082	32	12.385385509716
222	279513	33	12.699441315695
222	289024	34	12.537582975459
222	298922	35	12.391996221077
222	308318	36	11.940740622366
222	318408	37	12.597798935157
89	2	1	326.65
89	6202	2	326.65
89	13160	3	326.65
89	19701	4	326.65
89	27635	5	326.65
89	35421	6	326.65
89	43027	7	326.65
89	51055	8	326.65
89	58794	9	326.65
89	66725	10	326.65
89	75287	11	326.65
89	84416	12	326.65
89	92953	13	326.65
89	101128	14	326.65
89	109143	15	326.65
89	117147	16	326.65
89	125187	17	326.65
89	133594	18	326.65
89	142467	19	326.65
89	151684	20	326.65
89	160818	21	326.65
89	169967	22	326.65
89	179113	23	326.65
89	188197	24	326.65
89	197767	25	326.65
89	207062	26	326.65
89	216997	27	326.65
89	226713	28	326.65
89	237514	29	326.65
89	247275	30	331.08886007171
89	259214	31	343.39361823683
89	269082	32	355.77900374654
89	279513	33	368.47844506224
89	289024	34	381.0160280377
89	298922	35	393.40802425877
89	308318	36	405.34876488114
89	318408	37	417.9465638163
88	2	1	334.85
88	6202	2	336.9630978514
88	13160	3	340.44026709776
88	19701	4	345.5658442243
88	27635	5	352.51316531869
88	35421	6	361.857662183
88	43027	7	373.5993661664
88	51055	8	386.75905866501
88	58794	9	398.86823086479
88	66725	10	409.68037106174
88	75287	11	416.24419117908
88	84416	12	425.38125144802
88	92953	13	436.77492081139
88	101128	14	449.33000965355
88	109143	15	462.49281763482
88	117147	16	475.01210693697
88	125187	17	487.84610630815
88	133594	18	501.02202496613
88	142467	19	511.71673036035
88	151684	20	517.91143575457
88	160818	21	525.79033776876
88	169967	22	535.15506055579
88	179113	23	546.31804325205
88	188197	24	558.34908829565
88	197767	25	571.16162823756
88	207062	26	584.06772876925
88	216997	27	596.36664666759
88	226713	28	607.49805308015
88	237514	29	615.84994385818
88	247275	30	623.35
88	259214	31	623.35
88	269082	32	623.35
88	279513	33	623.35
88	289024	34	623.35
88	298922	35	623.35
88	308318	36	623.35
88	318408	37	623.35
344	13160	3	3.0885506491761
344	19701	4	4.7159024126575
344	27635	5	5.7841197202966
344	35421	6	6.234164375989
344	43027	7	4.8177081225102
344	51055	8	0.973
344	58794	9	4.4975819099236
344	66725	10	1.3425399054012
344	75287	11	2.2317250904252
344	84416	12	0.973
344	92953	13	3.374931051156
344	101128	14	2.4138166897655
344	109143	15	1.2640406530429
344	117147	16	2.6411718263629
344	125187	17	0.973
344	133594	18	1.4879243253535
344	142467	19	2.0871753636106
344	151684	20	0.973
344	160818	21	5.1400513597842
344	169967	22	5.9227813403725
344	179113	23	3.885225671946
344	188197	24	2.3486714233823
344	197767	25	4.0840713621153
344	207062	26	1.6847662522256
344	216997	27	0.973
344	226713	28	4.0589289032281
344	237514	29	0.973
344	247275	30	3.0067799019482
344	259214	31	3.0347777361606
344	269082	32	0.973
344	279513	33	0.973
344	289024	34	2.4480647612638
344	298922	35	2.1679795288903
344	308318	36	3.7950954988508
344	318408	37	0.973
344	327601	38	2.5407415101862
343	13160	3	2.1238328776089
343	19701	4	2.3383285223972
343	27635	5	2.1847467867425
343	35421	6	1.8992835313547
343	43027	7	1.1402216018736
343	51055	8	-0.56078978059813
343	58794	9	0.97157758546527
343	66725	10	-0.16428099812474
343	75287	11	0.15436843233183
343	84416	12	-0.83708912606817
343	92953	13	0.58758865743875
343	101128	14	0.22152911603916
343	109143	15	-0.19212008265313
343	117147	16	0.297842351906
343	125187	17	-0.9253175513586
343	133594	18	-0.094126430666075
343	142467	19	0.13564155202725
343	151684	20	-4.5
343	160818	21	1.8554122319911
343	169967	22	1.7938905341784
343	179113	23	0.83567658329016
343	188197	24	0.22614111166913
343	197767	25	0.80246980676893
343	207062	26	-0.047447406547144
343	216997	27	-0.8346496715676
343	226713	28	0.80152671511751
343	237514	29	-0.86292553248349
343	247275	30	0.45398181269411
343	259214	31	0.43397903044242
343	269082	32	-0.76663959771395
343	279513	33	-0.32267684992403
343	289024	34	0.26811547048856
343	298922	35	0.15373300383799
343	308318	36	0.70186713570729
343	318408	37	-0.31495068436488
343	327601	38	0.2590168613242
216	6202	2	1.4015385301784
216	13160	3	3.5253714077873
216	19701	4	5.8636999301845
216	27635	5	8.048446716927
216	35421	6	9.9477302482817
216	43027	7	11.087951850155
216	51055	8	10.527162069557
216	58794	9	11.498739655022
216	66725	10	11.334458656898
216	75287	11	11.48882708923
216	84416	12	10.651737963161
216	92953	13	11.2393266206
216	101128	14	11.460855736639
216	109143	15	11.268735653986
216	117147	16	11.566578005892
216	125187	17	10.641260454534
216	133594	18	10.547134023867
216	142467	19	10.682775575895
216	151684	20	6.1827755758948
216	160818	21	8.0381878078858
216	169967	22	9.8320783420642
216	179113	23	10.667754925354
216	188197	24	10.893896037023
216	197767	25	11.696365843792
216	207062	26	11.648918437245
216	216997	27	10.814268765678
216	226713	28	11.615795480795
216	237514	29	10.752869948312
216	247275	30	11.206851761006
216	259214	31	11.640830791448
216	269082	32	10.874191193734
216	279513	33	10.55151434381
216	289024	34	10.819629814299
216	298922	35	10.973362818137
216	308318	36	11.675229953844
216	318408	37	11.360279269479
216	327601	38	11.619296130803
77	2	1	634.85
77	6202	2	636.25153853018
77	13160	3	639.77690993797
77	19701	4	645.64060986815
77	27635	5	653.68905658508
77	35421	6	663.63678683336
77	43027	7	674.72473868351
77	51055	8	685.25190075307
77	58794	9	696.75064040809
77	66725	10	708.08509906499
77	75287	11	719.57392615422
77	84416	12	723.35
77	92953	13	723.35
77	101128	14	723.35
77	109143	15	723.35
77	117147	16	723.35
77	125187	17	723.35
77	133594	18	723.35
77	142467	19	723.35
77	151684	20	723.35
77	160818	21	719.14670642742
77	169967	22	709.31462808536
77	179113	23	698.64687316
77	188197	24	687.75297712298
77	197767	25	676.05661127919
77	207062	26	664.40769284194
77	216997	27	653.59342407627
77	226713	28	641.97762859547
77	237514	29	631.22475864716
77	247275	30	620.01790688615
77	259214	31	608.37707609471
77	269082	32	597.50288490097
77	279513	33	586.95137055716
77	289024	34	576.13174074286
77	298922	35	565.15837792473
77	308318	36	553.48314797088
77	318408	37	542.1228687014
77	327601	38	530.5035725706
76	2	1	623.35
76	6202	2	623.35
76	13160	3	623.35
76	19701	4	623.35
76	27635	5	623.35
76	35421	6	623.35
76	43027	7	623.35
76	51055	8	623.35
76	58794	9	623.35
76	66725	10	623.35
76	75287	11	623.35
76	84416	12	615.27433588262
76	92953	13	604.03500926202
76	101128	14	592.57415352538
76	109143	15	581.30541787139
76	117147	16	569.7388398655
76	125187	17	559.09757941097
76	133594	18	548.5504453871
76	142467	19	537.8676698112
76	151684	20	531.68489423531
76	160818	21	526.65
76	169967	22	526.65
76	179113	23	526.65
76	188197	24	526.65
76	197767	25	526.65
76	207062	26	526.65
76	216997	27	526.65
76	226713	28	526.65
76	237514	29	526.65
76	247275	30	526.65
76	259214	31	526.65
76	269082	32	526.65
76	279513	33	526.65
76	289024	34	526.65
76	298922	35	526.65
76	308318	36	526.65
76	318408	37	526.65
76	327601	38	526.65
362	13160	3	2.7608631102024
362	19701	4	4.5437881163169
362	27635	5	4.0534718556122
362	35421	6	4.7959889784637
362	43027	7	5.2127045663977
362	51055	8	5.5256663273948
362	58794	9	9.9262986993357
362	66725	10	0.973
362	75287	11	0.973
362	84416	12	0.973
362	92953	13	3.6404112106981
362	101128	14	6.4958761468
362	109143	15	7.2004541528755
362	117147	16	7.7717448943737
362	125187	17	11.136522514373
362	133594	18	0.973
362	142467	19	3.930099476473
362	151684	20	3.004259342877
362	160818	21	0.973
362	169967	22	0.973
362	179113	23	5.8667751226041
362	188197	24	0.973
362	197767	25	5.1884046714121
362	207062	26	0.973
362	216997	27	0.973
362	226713	28	0.973
362	237514	29	0.973
[...]
78	496979	61	126.65
78	501926	62	126.65
78	506626	63	126.65
78	511267	64	126.65
78	515719	65	126.65
78	520029	66	126.65
78	524421	67	126.65
78	528613	68	126.65
78	532614	69	126.65
78	536174	70	126.65
78	539518	71	126.65
78	542861	72	126.65
78	545888	73	126.65
78	548779	74	126.65
78	551524	75	129.26028486458
78	554138	76	137.16668969337
78	556745	77	147.08875980804
78	559281	78	156.41840328009
78	561613	79	166.75073942106
78	563897	80	176.01786555056
78	566179	81	186.23607522209
78	568362	82	196.52792914591
78	570438	83	206.56764514708
78	572443	84	216.43237540884
78	574418	85	226.15346490239
78	576401	86	235.45581482795
78	578095	87	245.6055719404
78	579598	88	255.01296299813
78	580951	89	264.52751230757
78	582279	90	274.32849680853
78	583559	91	284.27587767916
78	584845	92	293.47615054324
78	586072	93	302.87761297923
78	587223	94	312.84157115234
78	588341	95	322.21604118223
78	589439	96	331.88731189107
78	590460	97	341.06768735633
78	591430	98	351.13622607855
78	592335	99	361.43863086031
78	593144	100	371.56505864285
78	593959	101	381.50000211235
78	594654	102	391.81748327326
78	595331	103	401.27542939985
78	595998	104	411.56008236786
78	596657	105	420.74087678863
78	597314	106	430.24628692224
78	597975	107	439.46087203328
78	598542	108	449.26832933861
78	599037	109	458.75617657398
78	599546	110	469.04083234874
78	600008	111	478.94153315554
78	600435	112	489.00276443827
78	600799	113	498.48917174181
78	601068	114	508.12741362853
78	601337	115	517.3309185061
78	601606	116	526.86607512025
78	601883	117	536.37924727941
78	602109	118	546.39501277355
78	602335	119	556.43424496581
78	602526	120	566.25807949711
78	602717	121	575.63582574747
78	602908	122	585.75087321672
78	603099	123	596.02048878318
78	603298	124	606.32892473885
78	603460	125	616.15047253911
78	603622	126	625.94427183905
78	603747	127	635.12314845707
78	603872	128	644.59711466678
78	603997	129	654.35594901822
78	604122	130	663.66750964013
78	604247	131	673.91124505567
78	604372	132	684.16782555544
78	604497	133	693.3977312674
78	604622	134	703.00546978694
78	604755	135	713.04213906401
78	604847	136	723.15818386605
78	604906	137	733.48937482693
78	604965	138	743.74863251836
78	605024	139	753.26053130133
78	605083	140	762.95815298229
78	605113	141	772.64922423634
78	605143	142	782.2398493051
78	605173	143	792.46427682319
78	605203	144	802.22211435095
78	605233	145	812.4975445472
78	605263	146	821.97267277567
78	605293	147	831.08483791653
78	605323	148	840.75516511935
78	605353	149	850.46454952536
79	2	1	623.35
79	6202	2	623.35
79	13160	3	623.35
79	19701	4	623.35
79	27635	5	623.35
79	35421	6	623.35
79	43027	7	623.35
79	51055	8	623.35
79	58794	9	623.35
79	66725	10	623.35
79	75287	11	623.35
79	84416	12	623.35
79	92953	13	620.52130325001
79	101128	14	610.17966956908
79	109143	15	600.93138446397
79	117147	16	591.57644280685
79	125187	17	581.70592365338
79	133594	18	571.43600628274
79	142467	19	561.31754819923
79	151684	20	550.96452060401
79	160818	21	540.61436555487
79	169967	22	530.28861425249
79	179113	23	521.02528255405
79	188197	24	511.53786346749
79	197767	25	502.33845793429
79	207062	26	493.17868751363
79	216997	27	483.15546300733
79	226713	28	473.42332272197
79	237514	29	463.13023711641
79	247275	30	453.70253977693
79	259214	31	443.79976777529
79	269082	32	433.99414083032
79	279513	33	424.29801031156
79	289024	34	414.07973345781
79	298922	35	404.47613907018
79	308318	36	395.04119866638
79	318408	37	385.71423941663
79	327601	38	376.38123281473
79	336746	39	366.0777058508
79	345782	40	356.51221715658
79	354355	41	346.51044263292
79	363331	42	336.78816308306
79	372137	43	327.62987373658
79	380696	44	317.80455923709
79	389109	45	308.11430968223
79	397360	46	297.75977499326
79	405374	47	288.56971517886
79	413388	48	279.13244121008
79	421066	49	268.88964916284
79	428310	50	259.20521776732
79	435589	51	249.3636766263
79	442562	52	239.46889123047
79	449350	53	229.9733521828
79	456118	54	220.34649209099
79	462646	55	211.23244794942
79	469198	56	201.4500218725
79	475358	57	191.76890118419
79	481269	58	181.49928171105
79	486696	59	171.31100513398
79	492020	60	161.06844912192
79	496979	61	151.04844891561
79	501926	62	141.81718271893
79	506626	63	132.50616436974
79	511267	64	122.12252352154
79	515719	65	112.02178493678
79	520029	66	101.67226312987
79	524421	67	91.706359932494
79	528613	68	82.532453403656
79	532614	69	72.824663260166
79	536174	70	63.415686970066
79	539518	71	54.229706661191
79	542861	72	44.937031045782
79	545888	73	36.547875077063
79	548779	74	31.707323019716
79	551524	75	26.718416085095
79	554138	76	26.65
79	556745	77	26.65
79	559281	78	26.65
79	561613	79	26.65
79	563897	80	26.65
79	566179	81	26.65
79	568362	82	26.65
79	570438	83	26.65
79	572443	84	26.65
79	574418	85	26.65
79	576401	86	26.65
79	578095	87	26.65
79	579598	88	26.65
79	580951	89	26.65
79	582279	90	26.65
79	583559	91	26.65
79	584845	92	26.65
79	586072	93	26.65
79	587223	94	26.65
79	588341	95	26.65
79	589439	96	26.65
79	590460	97	26.65
79	591430	98	26.65
79	592335	99	26.65
79	593144	100	26.65
79	593959	101	26.65
79	594654	102	26.65
79	595331	103	26.65
79	595998	104	26.65
79	596657	105	26.65
79	597314	106	26.65
79	597975	107	26.65
79	598542	108	26.65
79	599037	109	26.65
79	599546	110	26.65
79	600008	111	26.65
79	600435	112	26.65
79	600799	113	26.65
79	601068	114	26.65
79	601337	115	26.65
79	601606	116	26.65
79	601883	117	26.65
79	602109	118	26.65
79	602335	119	26.65
79	602526	120	26.65
79	602717	121	26.65
79	602908	122	26.65
79	603099	123	26.65
79	603298	124	26.65
79	603460	125	26.65
79	603622	126	26.65
79	603747	127	26.65
79	603872	128	26.65
79	603997	129	26.65
79	604122	130	26.65
79	604247	131	26.65
79	604372	132	26.65
79	604497	133	26.65
79	604622	134	26.65
79	604755	135	26.65
79	604847	136	26.65
79	604906	137	26.65
79	604965	138	26.65
79	605024	139	26.65
79	605083	140	26.65
79	605113	141	26.65
79	605143	142	26.65
79	605173	143	26.65
79	605203	144	26.65
79	605233	145	26.65
79	605263	146	26.65
79	605293	147	26.65
79	605323	148	26.65
79	605353	149	26.65
217	6202	2	1.4993388696341
217	13160	3	3.5080008386634
217	19701	4	5.3463940369198
217	27635	5	6.8707008739701
217	35421	6	8.8488080998417
217	43027	7	10.228987568412
217	51055	8	10.341884295367
217	58794	9	9.9207083393166
217	66725	10	9.2370664618954
217	75287	11	9.874441036959
217	84416	12	6.3232609882146
217	92953	13	8.1264724489894
217	101128	14	10.344266572739
217	109143	15	9.2482851051071
217	117147	16	9.3549416571201
217	125187	17	9.8705191534755
217	133594	18	10.26991737064
217	142467	19	10.118458083509
217	151684	20	10.353027595212
217	160818	21	10.350155049148
217	169967	22	10.325751302372
217	179113	23	9.2633316984445
217	188197	24	9.4874190865595
217	197767	25	9.1994055331962
217	207062	26	9.1597704206638
217	216997	27	10.023224506299
217	226713	28	9.7321402853632
217	237514	29	10.293085605562
217	247275	30	9.4276973394721
217	259214	31	9.9027720016472
217	269082	32	9.8056269449692
217	279513	33	9.6961305187594
217	289024	34	10.218276853747
217	298922	35	9.6035943876298
217	308318	36	9.4349404037974
217	318408	37	9.3269592497542
217	327601	38	9.3330066019015
217	336746	39	10.303526963927
217	345782	40	9.5654886942168
217	354355	41	10.001774523668
217	363331	42	9.7222795498602
217	372137	43	9.1582893464759
217	380696	44	9.8253144994888
217	389109	45	9.6902495548639
217	397360	46	10.354534688969
217	405374	47	9.190059814397
217	413388	48	9.4372739687839
217	421066	49	10.242792047239
217	428310	50	9.6844313955212
217	435589	51	9.8415411410199
217	442562	52	9.8947853958279
217	449350	53	9.4955390476666
217	456118	54	9.6268600918164
217	462646	55	9.1140441415643
217	469198	56	9.7824260769224
217	475358	57	9.6811206883097
217	481269	58	10.269619473144
217	486696	59	10.18827657707
217	492020	60	10.242556012054
217	496979	61	10.020000206311
217	501926	62	9.2312661966819
217	506626	63	9.3110183491882
217	511267	64	10.383640848198
217	515719	65	10.100738584767
217	520029	66	10.34952180691
217	524421	67	9.965903197373
217	528613	68	9.1739065288378
217	532614	69	9.7077901434896
217	536174	70	9.4089762901
217	539518	71	9.1859803088752
217	542861	72	9.2926756154092
217	545888	73	8.389155968719
217	548779	74	4.8405520573471
217	551524	75	6.4628553906669
217	554138	76	7.9111573224169
217	556745	77	9.9220701146682
217	559281	78	9.3296434720557
217	561613	79	10.332336140964
217	563897	80	9.2671261295022
217	566179	81	10.218209671536
217	568362	82	10.291853923821
217	570438	83	10.039716001162
217	572443	84	9.8647302617596
217	574418	85	9.7210894935576
217	576401	86	9.3023499255579
217	578095	87	10.149757112451
217	579598	88	9.4073910577267
217	580951	89	9.5145493094388
217	582279	90	9.8009845009584
217	583559	91	9.9473808706317
217	584845	92	9.2002728640845
217	586072	93	9.4014624359829
217	587223	94	9.9639581731099
217	588341	95	9.3744700298922
217	589439	96	9.6712707088373
217	590460	97	9.1803754652662
217	591430	98	10.068538722214
217	592335	99	10.302404781761
217	593144	100	10.126427782541
217	593959	101	9.9349434695018
217	594654	102	10.317481160913
217	595331	103	9.4579461265865
217	595998	104	10.284652968012
217	596657	105	9.1807944207729
217	597314	106	9.5054101336093
217	597975	107	9.2145851110385
217	598542	108	9.8074573053324
217	599037	109	9.4878472353609
217	599546	110	10.284655774762
217	600008	111	9.9007008068075
217	600435	112	10.06123128273
217	600799	113	9.4864073035352
217	601068	114	9.6382418867245
217	601337	115	9.2035048775652
217	601606	116	9.5351566141516
217	601883	117	9.5131721591621
217	602109	118	10.015765494136
217	602335	119	10.039232192263
217	602526	120	9.823834531293
217	602717	121	9.3777462503684
217	602908	122	10.115047469251
217	603099	123	10.269615566456
217	603298	124	10.308435955671
217	603460	125	9.8215478002604
217	603622	126	9.7937992999375
217	603747	127	9.178876618021
217	603872	128	9.4739662097113
217	603997	129	9.7588343514407
217	604122	130	9.3115606219087
217	604247	131	10.243735415539
217	604372	132	10.256580499774
217	604497	133	9.229905711957
217	604622	134	9.6077385195343
217	604755	135	10.036669277078
217	604847	136	10.116044802037
217	604906	137	10.331190960882
217	604965	138	10.259257691428
217	605024	139	9.5118987829702
217	605083	140	9.6976216809636
217	605113	141	9.6910712540427
217	605143	142	9.5906250687593
217	605173	143	10.22442751809
217	605203	144	9.757837527762
217	605233	145	10.275430196249
217	605263	146	9.4751282284779
217	605293	147	9.112165140854
217	605323	148	9.6703272028172
217	605353	149	9.7093844060132
345	13160	3	2.0086619690293
345	19701	4	1.8383931982564
345	27635	5	1.5243068370502
345	35421	6	1.9781072258716
345	43027	7	1.3801794685701
345	51055	8	0.11289672695566
345	58794	9	-0.42117595605086
345	66725	10	-0.68364187742118
345	75287	11	0.63737457506359
345	84416	12	-3.5511800487444
345	92953	13	1.8032114607748
345	101128	14	2.2177941237494
345	109143	15	-1.0959814676316
345	117147	16	0.10665655201301
345	125187	17	0.5155774963554
345	133594	18	0.39939821716398
345	142467	19	-0.15145928713027
345	151684	20	0.23456951170228
345	160818	21	-0.0028725460637364
345	169967	22	-0.024403746775352
345	179113	23	-1.062419603928
345	188197	24	0.224087388115
345	197767	25	-0.28801355336327
345	207062	26	-0.039635112532414
345	216997	27	0.86345408563502
345	226713	28	-0.29108422093559
345	237514	29	0.56094532019924
345	247275	30	-0.8653882660903
345	259214	31	0.47507466217503
345	269082	32	-0.097145056677983
345	279513	33	-0.10949642620981
345	289024	34	0.52214633498807
345	298922	35	-0.61468246611767
345	308318	36	-0.16865398383234
345	318408	37	-0.10798115404323
345	327601	38	0.0060473521472897
345	336746	39	0.97052036202513
345	345782	40	-0.7380382697098
345	354355	41	0.43628582945094
345	363331	42	-0.2794949738076
345	372137	43	-0.56399020338431
345	380696	44	0.66702515301295
345	389109	45	-0.1350649446249
345	397360	46	0.66428513410501
345	405374	47	-1.1644748745719
345	413388	48	0.24721415438689
345	421066	49	0.80551807845477
345	428310	50	-0.55836065171752
345	435589	51	0.15710974549875
345	442562	52	0.053244254807943
345	449350	53	-0.39924634816125
345	456118	54	0.13132104414981
345	462646	55	-0.51281595025212
345	469198	56	0.66838193535805
345	475358	57	-0.10130538861267
345	481269	58	0.58849878483452
345	486696	59	-0.081342896074057
345	492020	60	0.054279434983618
345	496979	61	-0.22255580574274
345	501926	62	-0.78873400962912
345	506626	63	0.079752152506263
345	511267	64	1.0726224990096
345	515719	65	-0.28290226343088
345	520029	66	0.24878322214354
345	524421	67	-0.38361860953737
345	528613	68	-0.79199666853529
345	532614	69	0.53388361465186
345	536174	70	-0.29881385338958
345	539518	71	-0.22299598122481
345	542861	72	0.10669530653395
345	545888	73	-0.90351964669015
345	548779	74	-3.5486039113719
345	551524	75	1.6223033333197
345	554138	76	1.44830193175
345	556745	77	2.0109127922514
345	559281	78	-0.59242664261255
345	561613	79	1.0026926689083
345	563897	80	-1.0652100114617
345	566179	81	0.95108354203403
345	568362	82	0.073644252284431
345	570438	83	-0.25213792265859
345	572443	84	-0.17498573940247
345	574418	85	-0.14364076820202
345	576401	86	-0.41873956799973
345	578095	87	0.84740718689281
345	579598	88	-0.74236605472397
345	580951	89	0.1071582517121
345	582279	90	0.28643519151956
345	583559	91	0.14639636967331
345	584845	92	-0.7471080065472
345	586072	93	0.20118957189843
345	587223	94	0.56249573712703
345	588341	95	-0.58948814321775
345	589439	96	0.29680067894515
345	590460	97	-0.49089524357114
345	591430	98	0.88816325694788
345	592335	99	0.23386605954729
345	593144	100	-0.17597699922044
345	593959	101	-0.19148431303911
345	594654	102	0.38253769141156
345	595331	103	-0.85953503432684
345	595998	104	0.82670684142504
345	596657	105	-1.1038585472386
345	597314	106	0.32461571283638
345	597975	107	-0.29082502257079
345	598542	108	0.59287219429389
345	599037	109	-0.31961006997153
345	599546	110	0.79680853940081
345	600008	111	-0.3839549679542
345	600435	112	0.16053047592286
345	600799	113	-0.57482397919521
345	601068	114	0.15183458318934
345	601337	115	-0.43473700915929
345	601606	116	0.33165173658636
345	601883	117	-0.021984454989434
345	602109	118	0.50259333497379
345	602335	119	0.023466698126867
345	602526	120	-0.21539766096976
345	602717	121	-0.4460882809246
345	602908	122	0.7373012188822
345	603099	123	0.1545680972049
345	603298	124	0.038820389215836
345	603460	125	-0.486888155411
345	603622	126	-0.027748500322923
345	603747	127	-0.61492268191651
345	603872	128	0.29508959169034
345	603997	129	0.28486814172939
345	604122	130	-0.44727372953203
345	604247	131	0.93217479363084
345	604372	132	0.01284508423414
345	604497	133	-1.0266747878166
345	604622	134	0.37783280757721
345	604755	135	0.428930757544
345	604847	136	0.079375524958596
345	604906	137	0.21514615884516
345	604965	138	-0.071933269454167
345	605024	139	-0.74735890845768
345	605083	140	0.1857228979934
345	605113	141	-0.0065504269208763
345	605143	142	-0.10044618528336
345	605173	143	0.63380244933069
345	605203	144	-0.46658999032807
345	605233	145	0.51759266848676
345	605263	146	-0.80030196777079
345	605293	147	-0.36296308762394
345	605323	148	0.55816206196323
345	605353	149	0.039057203195989
346	13160	3	2.981393406453
346	19701	4	3.7507621146886
346	27635	5	3.9954115287939
346	35421	6	5.8193112260077
346	43027	7	5.1047168603837
346	51055	8	1.9924570051521
346	58794	9	0.973
346	66725	10	0.973
346	75287	11	3.1920716806302
346	84416	12	0.973
346	92953	13	5.0831512065972
346	101128	14	7.2401497400516
346	109143	15	0.973
346	117147	16	1.8773742693069
346	125187	17	2.9014438277577
346	133594	18	2.6940144107429
346	142467	19	1.3244744457095
346	151684	20	2.2972116902238
346	160818	21	1.7045529555886
346	169967	22	1.649089286901
346	179113	23	0.973
346	188197	24	2.1589308290615
346	197767	25	0.973
346	207062	26	1.5353674157199
346	216997	27	3.7723015527578
346	226713	28	0.973
346	237514	29	3.0987800158059
346	247275	30	0.973
346	259214	31	2.811218182137
346	269082	32	1.4405506279042
346	279513	33	1.4060845010416
346	289024	34	2.9873308386698
346	298922	35	0.973
346	308318	36	1.2592398334456
346	318408	37	1.3921664556011
346	327601	38	1.648925836367
346	336746	39	4.1180384057465
346	345782	40	0.973
346	354355	41	2.7365491013653
346	363331	42	0.973
346	372137	43	0.973
346	380696	44	3.251044341761
346	389109	45	1.3460914153282
346	397360	46	3.3697451467453
346	405374	47	0.973
346	413388	48	2.2051585739681
346	421066	49	3.6918162686245
346	428310	50	0.973
346	435589	51	2.0454472561126
346	442562	52	1.8037865714961
346	449350	53	0.973
346	456118	54	1.9614930500344
346	462646	55	0.973
346	469198	56	3.2441372305535
346	475358	57	1.4244769600464
346	481269	58	3.1619824589652
346	486696	59	1.4994507466124
346	492020	60	1.8373526619873
346	496979	61	0.973
346	501926	62	0.973
346	506626	63	1.8126938168663
346	511267	64	4.39852307243
346	515719	65	0.973
346	520029	66	2.3321926110061
346	524421	67	0.973
346	528613	68	0.973
346	532614	69	2.9118808555617
346	536174	70	0.973
346	539518	71	0.973
346	542861	72	1.8713567009773
346	545888	73	0.973
346	548779	74	0.973
346	551524	75	3.973520801733
346	554138	76	4.2986902788802
346	556745	77	6.4874092769749
346	559281	78	0.973
346	561613	79	4.2071285143756
346	563897	80	0.973
346	566179	81	4.0436130462762
346	568362	82	1.8898471615334
346	570438	83	0.973
346	572443	84	1.2585440336463
346	574418	85	1.3272891005554
346	576401	86	0.973
346	578095	87	3.7690514321117
346	579598	88	0.973
346	580951	89	1.894264215
346	582279	90	2.3463425577605
346	583559	91	2.0317486919327
346	584845	92	0.973
346	586072	93	2.0961365498342
346	587223	94	3.0327738102532
346	588341	95	0.973
346	589439	96	2.3518828570225
346	590460	97	0.973
346	591430	98	3.8451416762297
346	592335	99	2.2886648808515
346	593144	100	1.2649595893406
346	593959	101	1.2213743181974
346	594654	102	2.6603599587741
346	595331	103	0.973
346	595998	104	3.7557027087987
346	596657	105	0.973
346	597314	106	2.3915106423639
346	597975	107	0.973
346	598542	108	3.0715677041281
346	599037	109	0.973
346	599546	110	3.6815974932386
346	600008	111	0.973
346	600435	112	2.0786873854143
346	600799	113	0.973
346	601068	114	2.0103441820248
346	601337	115	0.973
346	601606	116	2.4121885291349
346	601883	117	1.5980454816119
346	602109	118	2.8991365488969
346	602335	119	1.7445395990561
346	602526	120	0.973
346	602717	121	0.973
346	602908	122	3.490892654658
346	603099	123	2.0880129782313
346	603298	124	1.8049148557698
346	603460	125	0.973
346	603622	126	1.6037392647933
346	603747	127	0.973
346	603872	128	2.3193342944361
346	603997	129	2.3365967774192
346	604122	130	0.973
346	604247	131	4.0047548731214
346	604372	132	1.736202058747
346	604497	133	0.973
346	604622	134	2.530264670629
346	604755	135	2.7250814906368
346	604847	136	1.887145266948
346	604906	137	2.245915955395
346	604965	138	1.5268046880672
346	605024	139	0.973
346	605083	140	2.096120945039
346	605113	141	1.6462775393923
346	605143	142	1.4219781132101
346	605173	143	3.2637100000812
346	605203	144	0.973
346	605233	145	2.9876664313932
346	605263	146	0.973
346	605293	147	0.973
346	605323	148	2.9608608716921
346	605353	149	1.7543297131966
346	605383	150	2.6436402234269
346	605413	151	2.0179606294665
346	605443	152	0.973
346	605473	153	2.285533583616
346	605503	154	2.1329807080266
346	605533	155	0.973
346	605563	156	0.973
345	605383	150	0.39078480286989
345	605413	151	0.12807287755422
345	605443	152	-0.94578482608777
345	605473	153	0.27516871884
345	605503	154	0.19843654562719
345	605533	155	-0.23838081141002
345	605563	156	-0.35088691732381
217	605383	150	10.100169208883
217	605413	151	10.228242086437
217	605443	152	9.2824572603496
217	605473	153	9.5576259791895
217	605503	154	9.7560625248167
217	605533	155	9.5176817134067
217	605563	156	9.1667947960829
79	605383	150	26.65
79	605413	151	26.65
79	605443	152	26.65
79	605473	153	26.65
79	605503	154	26.65
79	605533	155	26.65
79	605563	156	26.65
78	605383	150	860.56471873424
78	605413	151	870.79296082068
78	605443	152	880.07541808103
78	605473	153	889.63304406022
78	605503	154	899.38910658504
78	605533	155	908.90678829844
78	605563	156	918.07358309452

