version 2
run General-0-20250607-01:51:00-9886
attr configname General
attr datetime 20250607-01:51:00
attr experiment General
attr inifile omnetpp.ini
attr iterationvars ""
attr iterationvarsf ""
attr measurement ""
attr network Scenario
attr processid 9886
attr repetition 0
attr replication #0
attr resultdir results
attr runnumber 0
attr seedset 0
param *.playgroundSizeX 1000m
param *.playgroundSizeY 1000m
param *.playgroundSizeZ 50m
param *.manager.launchConfig "xmldoc(\"../../../sumo_scenarios/SUMO-Manhattan-1km_x_1km/100_0.launchd.xml\")"
param *.obstacles.obstacles "xmldoc(\"config.xml\", \"//AnalogueModel[@type='SimpleObstacleShadowing']/obstacles\")"
param *.manager.typename "\"siege.ScenarioManager\""
param *.connectionManager.sendDirect true
param *.connectionManager.maxInterfDist 260m
param *.**.nic.phy80211p.usePropagationDelay true
param *.**.nic.phy80211p.useNoiseFloor true
param *.**.nic.phy80211p.noiseFloor -98dBm
param *.**.nic.phy80211p.decider "xmldoc(\"config.xml\")"
param *.**.nic.phy80211p.analogueModels "xmldoc(\"config.xml\")"
param *.**.nic.phy80211p.minPowerLevel -110dBm
param *.**.nic.mac1609_4.txPower 20mW
param *.**.nic.mac1609_4.bitrate 6Mbps
param *.rsu[*].applType "\"siege.DemoRSU11p\""
param *.rsu[0].mobility.x 200
param *.rsu[0].mobility.y 200
param *.rsu[0].mobility.z 3
param *.node[*].applType "\"siege.Demo11p\""
param *.node[*].veinsmobility.x 0
param *.node[*].veinsmobility.y 0
param *.node[*].veinsmobility.z 0
param *.node[*].veinsmobility.setHostSpeed false
param *.fugitivo[*].applType "\"siege.Fugitivo\""
param *.fugitivo[*].veinsmobility.x 0
param *.fugitivo[*].veinsmobility.y 0
param *.fugitivo[*].veinsmobility.z 0
param *.fugitivo[*].veinsmobility.setHostSpeed false

scalar Scenario.node[26].appl generatedWSMs 0
scalar Scenario.node[26].appl receivedWSMs 0
scalar Scenario.node[26].appl generatedBSMs 0
scalar Scenario.node[26].appl receivedBSMs 0
scalar Scenario.node[26].appl generatedWSAs 0
scalar Scenario.node[26].appl receivedWSAs 0
scalar Scenario.node[26].nic.phy80211p busyTime 0
scalar Scenario.node[26].nic.mac1609_4 ReceivedUnicastPackets 0
scalar Scenario.node[26].nic.mac1609_4 ReceivedBroadcasts 0
scalar Scenario.node[26].nic.mac1609_4 SentPackets 0
scalar Scenario.node[26].nic.mac1609_4 SentAcknowledgements 0
scalar Scenario.node[26].nic.mac1609_4 RetriesExceeded 0
scalar Scenario.node[26].nic.mac1609_4 SNIRLostPackets 0
scalar Scenario.node[26].nic.mac1609_4 RXTXLostPackets 0
scalar Scenario.node[26].nic.mac1609_4 TotalLostPackets 0
scalar Scenario.node[26].nic.mac1609_4 DroppedPacketsInMac 0
scalar Scenario.node[26].nic.mac1609_4 TooLittleTime 0
scalar Scenario.node[26].nic.mac1609_4 TimesIntoBackoff 0
scalar Scenario.node[26].nic.mac1609_4 SlotsBackoff 0
scalar Scenario.node[26].nic.mac1609_4 NumInternalContention 0
scalar Scenario.node[26].nic.mac1609_4 totalBusyTime 0
scalar Scenario.node[26].nic.mac1609_4 retriesExceeded:count 0
attr source org_car2x_veins_modules_mac_sigRetriesExceeded
scalar Scenario.node[26].nic.mac1609_4 sentAcks:count 0
attr source org_car2x_veins_modules_mac_sigSentAck
scalar Scenario.node[26].nic.mac1609_4 sentPackets:count 0
attr source org_car2x_veins_modules_mac_sigSentPacket
scalar Scenario.node[26].nic.mac1609_4 collisions:count 0
attr source org_car2x_veins_modules_mac_sigCollision
scalar Scenario.node[26].nic.mac1609_4 channelBusy:timeavg 0
attr source org_car2x_veins_modules_mac_sigChannelBusy
scalar Scenario.node[26].veinsmobility startTime 1
scalar Scenario.node[26].veinsmobility totalTime 18
scalar Scenario.node[26].veinsmobility stopTime 20
scalar Scenario.node[26].veinsmobility minSpeed 1.7152554555098
scalar Scenario.node[26].veinsmobility maxSpeed 14.207450408165
scalar Scenario.node[26].veinsmobility totalDistance 179.03960164432
scalar Scenario.node[26].veinsmobility totalCO2Emission 75.039287562049
scalar Scenario.node[65].appl generatedWSMs 0
scalar Scenario.node[65].appl receivedWSMs 0
scalar Scenario.node[65].appl generatedBSMs 0
scalar Scenario.node[65].appl receivedBSMs 0
scalar Scenario.node[65].appl generatedWSAs 0
scalar Scenario.node[65].appl receivedWSAs 0
scalar Scenario.node[65].nic.phy80211p busyTime 0
scalar Scenario.node[65].nic.mac1609_4 ReceivedUnicastPackets 0
scalar Scenario.node[65].nic.mac1609_4 ReceivedBroadcasts 0
scalar Scenario.node[65].nic.mac1609_4 SentPackets 0
scalar Scenario.node[65].nic.mac1609_4 SentAcknowledgements 0
scalar Scenario.node[65].nic.mac1609_4 RetriesExceeded 0
scalar Scenario.node[65].nic.mac1609_4 SNIRLostPackets 0
scalar Scenario.node[65].nic.mac1609_4 RXTXLostPackets 0
scalar Scenario.node[65].nic.mac1609_4 TotalLostPackets 0
scalar Scenario.node[65].nic.mac1609_4 DroppedPacketsInMac 0
scalar Scenario.node[65].nic.mac1609_4 TooLittleTime 0
scalar Scenario.node[65].nic.mac1609_4 TimesIntoBackoff 0
scalar Scenario.node[65].nic.mac1609_4 SlotsBackoff 0
scalar Scenario.node[65].nic.mac1609_4 NumInternalContention 0
scalar Scenario.node[65].nic.mac1609_4 totalBusyTime 0
scalar Scenario.node[65].nic.mac1609_4 retriesExceeded:count 0
attr source org_car2x_veins_modules_mac_sigRetriesExceeded
scalar Scenario.node[65].nic.mac1609_4 sentAcks:count 0
attr source org_car2x_veins_modules_mac_sigSentAck
scalar Scenario.node[65].nic.mac1609_4 sentPackets:count 0
attr source org_car2x_veins_modules_mac_sigSentPacket
scalar Scenario.node[65].nic.mac1609_4 collisions:count 0
attr source org_car2x_veins_modules_mac_sigCollision
scalar Scenario.node[65].nic.mac1609_4 channelBusy:timeavg 0
attr source org_car2x_veins_modules_mac_sigChannelBusy
scalar Scenario.node[65].veinsmobility startTime 1
scalar Scenario.node[65].veinsmobility totalTime 23
scalar Scenario.node[65].veinsmobility stopTime 25
scalar Scenario.node[65].veinsmobility minSpeed 1.3689486144111
scalar Scenario.node[65].veinsmobility maxSpeed 16.514236666275
scalar Scenario.node[65].veinsmobility totalDistance 272.92923642191
scalar Scenario.node[65].veinsmobility totalCO2Emission 103.63272364542
scalar Scenario.node[86].appl generatedWSMs 0
scalar Scenario.node[86].appl receivedWSMs 0
scalar Scenario.node[86].appl generatedBSMs 0
scalar Scenario.node[86].appl receivedBSMs 0
scalar Scenario.node[86].appl generatedWSAs 0
scalar Scenario.node[86].appl receivedWSAs 0
scalar Scenario.node[86].nic.phy80211p busyTime 0
scalar Scenario.node[86].nic.mac1609_4 ReceivedUnicastPackets 0
scalar Scenario.node[86].nic.mac1609_4 ReceivedBroadcasts 0
scalar Scenario.node[86].nic.mac1609_4 SentPackets 0
scalar Scenario.node[86].nic.mac1609_4 SentAcknowledgements 0
scalar Scenario.node[86].nic.mac1609_4 RetriesExceeded 0
scalar Scenario.node[86].nic.mac1609_4 SNIRLostPackets 0
scalar Scenario.node[86].nic.mac1609_4 RXTXLostPackets 0
scalar Scenario.node[86].nic.mac1609_4 TotalLostPackets 0
scalar Scenario.node[86].nic.mac1609_4 DroppedPacketsInMac 0
scalar Scenario.node[86].nic.mac1609_4 TooLittleTime 0
scalar Scenario.node[86].nic.mac1609_4 TimesIntoBackoff 0
scalar Scenario.node[86].nic.mac1609_4 SlotsBackoff 0
scalar Scenario.node[86].nic.mac1609_4 NumInternalContention 0
scalar Scenario.node[86].nic.mac1609_4 totalBusyTime 0
scalar Scenario.node[86].nic.mac1609_4 retriesExceeded:count 0
attr source org_car2x_veins_modules_mac_sigRetriesExceeded
scalar Scenario.node[86].nic.mac1609_4 sentAcks:count 0
attr source org_car2x_veins_modules_mac_sigSentAck
scalar Scenario.node[86].nic.mac1609_4 sentPackets:count 0
attr source org_car2x_veins_modules_mac_sigSentPacket
scalar Scenario.node[86].nic.mac1609_4 collisions:count 0
attr source org_car2x_veins_modules_mac_sigCollision
scalar Scenario.node[86].nic.mac1609_4 channelBusy:timeavg 0
attr source org_car2x_veins_modules_mac_sigChannelBusy
scalar Scenario.node[86].veinsmobility startTime 1
scalar Scenario.node[86].veinsmobility totalTime 30
scalar Scenario.node[86].veinsmobility stopTime 32
scalar Scenario.node[86].veinsmobility minSpeed 0.95311095749299
scalar Scenario.node[86].veinsmobility maxSpeed 15.903512524255
scalar Scenario.node[86].veinsmobility totalDistance 281.11582667178
scalar Scenario.node[86].veinsmobility totalCO2Emission 134.96741982514
scalar Scenario.node[22].appl generatedWSMs 0
scalar Scenario.node[22].appl receivedWSMs 0
scalar Scenario.node[22].appl generatedBSMs 0
scalar Scenario.node[22].appl receivedBSMs 6
scalar Scenario.node[22].appl generatedWSAs 0
scalar Scenario.node[22].appl receivedWSAs 0
scalar Scenario.node[22].nic.phy80211p busyTime 2.275e-05
scalar Scenario.node[22].nic.mac1609_4 ReceivedUnicastPackets 0
scalar Scenario.node[22].nic.mac1609_4 ReceivedBroadcasts 6
scalar Scenario.node[22].nic.mac1609_4 SentPackets 0
scalar Scenario.node[22].nic.mac1609_4 SentAcknowledgements 0
scalar Scenario.node[22].nic.mac1609_4 RetriesExceeded 0
scalar Scenario.node[22].nic.mac1609_4 SNIRLostPackets 1
scalar Scenario.node[22].nic.mac1609_4 RXTXLostPackets 0
scalar Scenario.node[22].nic.mac1609_4 TotalLostPackets 1
scalar Scenario.node[22].nic.mac1609_4 DroppedPacketsInMac 0
scalar Scenario.node[22].nic.mac1609_4 TooLittleTime 0
scalar Scenario.node[22].nic.mac1609_4 TimesIntoBackoff 0
scalar Scenario.node[22].nic.mac1609_4 SlotsBackoff 0
scalar Scenario.node[22].nic.mac1609_4 NumInternalContention 0
scalar Scenario.node[22].nic.mac1609_4 totalBusyTime 0.000728
scalar Scenario.node[22].nic.mac1609_4 retriesExceeded:count 0
attr source org_car2x_veins_modules_mac_sigRetriesExceeded
scalar Scenario.node[22].nic.mac1609_4 sentAcks:count 0
attr source org_car2x_veins_modules_mac_sigSentAck
scalar Scenario.node[22].nic.mac1609_4 sentPackets:count 0
attr source org_car2x_veins_modules_mac_sigSentPacket
scalar Scenario.node[22].nic.mac1609_4 collisions:count 0
attr source org_car2x_veins_modules_mac_sigCollision
scalar Scenario.node[22].nic.mac1609_4 channelBusy:timeavg 2.275e-05
attr source org_car2x_veins_modules_mac_sigChannelBusy
scalar Scenario.node[22].veinsmobility startTime 1
scalar Scenario.node[22].veinsmobility totalTime 31
scalar Scenario.node[22].veinsmobility stopTime 33
scalar Scenario.node[22].veinsmobility minSpeed 1.5609465687769
scalar Scenario.node[22].veinsmobility maxSpeed 15.99264953445
scalar Scenario.node[22].veinsmobility totalDistance 381.99465208184
scalar Scenario.node[22].veinsmobility totalCO2Emission 122.27847266001
scalar Scenario.node[66].appl generatedWSMs 0
scalar Scenario.node[66].appl receivedWSMs 0
scalar Scenario.node[66].appl generatedBSMs 0
scalar Scenario.node[66].appl receivedBSMs 0
scalar Scenario.node[66].appl generatedWSAs 0
scalar Scenario.node[66].appl receivedWSAs 0
scalar Scenario.node[66].nic.phy80211p busyTime 0
scalar Scenario.node[66].nic.mac1609_4 ReceivedUnicastPackets 0
scalar Scenario.node[66].nic.mac1609_4 ReceivedBroadcasts 0
scalar Scenario.node[66].nic.mac1609_4 SentPackets 0
scalar Scenario.node[66].nic.mac1609_4 SentAcknowledgements 0
scalar Scenario.node[66].nic.mac1609_4 RetriesExceeded 0
scalar Scenario.node[66].nic.mac1609_4 SNIRLostPackets 0
scalar Scenario.node[66].nic.mac1609_4 RXTXLostPackets 0
scalar Scenario.node[66].nic.mac1609_4 TotalLostPackets 0
scalar Scenario.node[66].nic.mac1609_4 DroppedPacketsInMac 0
scalar Scenario.node[66].nic.mac1609_4 TooLittleTime 0
scalar Scenario.node[66].nic.mac1609_4 TimesIntoBackoff 0
scalar Scenario.node[66].nic.mac1609_4 SlotsBackoff 0
scalar Scenario.node[66].nic.mac1609_4 NumInternalContention 0
scalar Scenario.node[66].nic.mac1609_4 totalBusyTime 0
scalar Scenario.node[66].nic.mac1609_4 retriesExceeded:count 0
attr source org_car2x_veins_modules_mac_sigRetriesExceeded
scalar Scenario.node[66].nic.mac1609_4 sentAcks:count 0
attr source org_car2x_veins_modules_mac_sigSentAck
scalar Scenario.node[66].nic.mac1609_4 sentPackets:count 0
attr source org_car2x_veins_modules_mac_sigSentPacket
scalar Scenario.node[66].nic.mac1609_4 collisions:count 0
attr source org_car2x_veins_modules_mac_sigCollision
scalar Scenario.node[66].nic.mac1609_4 channelBusy:timeavg 0
attr source org_car2x_veins_modules_mac_sigChannelBusy
scalar Scenario.node[66].veinsmobility startTime 1
scalar Scenario.node[66].veinsmobility totalTime 32
scalar Scenario.node[66].veinsmobility stopTime 34
scalar Scenario.node[66].veinsmobility minSpeed 1.4998549617594
scalar Scenario.node[66].veinsmobility maxSpeed 15.327025356816
scalar Scenario.node[66].veinsmobility totalDistance 380.71539696785
scalar Scenario.node[66].veinsmobility totalCO2Emission 114.91077400027
scalar Scenario.node[83].appl generatedWSMs 0
scalar Scenario.node[83].appl receivedWSMs 0
scalar Scenario.node[83].appl generatedBSMs 0
scalar Scenario.node[83].appl receivedBSMs 0
scalar Scenario.node[83].appl generatedWSAs 0
scalar Scenario.node[83].appl receivedWSAs 0
scalar Scenario.node[83].nic.phy80211p busyTime 0
scalar Scenario.node[83].nic.mac1609_4 ReceivedUnicastPackets 0
scalar Scenario.node[83].nic.mac1609_4 ReceivedBroadcasts 0
scalar Scenario.node[83].nic.mac1609_4 SentPackets 0
scalar Scenario.node[83].nic.mac1609_4 SentAcknowledgements 0
scalar Scenario.node[83].nic.mac1609_4 RetriesExceeded 0
scalar Scenario.node[83].nic.mac1609_4 SNIRLostPackets 0
scalar Scenario.node[83].nic.mac1609_4 RXTXLostPackets 0
scalar Scenario.node[83].nic.mac1609_4 TotalLostPackets 0
scalar Scenario.node[83].nic.mac1609_4 DroppedPacketsInMac 0
scalar Scenario.node[83].nic.mac1609_4 TooLittleTime 0
scalar Scenario.node[83].nic.mac1609_4 TimesIntoBackoff 0
scalar Scenario.node[83].nic.mac1609_4 SlotsBackoff 0
scalar Scenario.node[83].nic.mac1609_4 NumInternalContention 0
scalar Scenario.node[83].nic.mac1609_4 totalBusyTime 0
scalar Scenario.node[83].nic.mac1609_4 retriesExceeded:count 0
attr source org_car2x_veins_modules_mac_sigRetriesExceeded
scalar Scenario.node[83].nic.mac1609_4 sentAcks:count 0
attr source org_car2x_veins_modules_mac_sigSentAck
scalar Scenario.node[83].nic.mac1609_4 sentPackets:count 0
attr source org_car2x_veins_modules_mac_sigSentPacket
scalar Scenario.node[83].nic.mac1609_4 collisions:count 0
attr source org_car2x_veins_modules_mac_sigCollision
scalar Scenario.node[83].nic.mac1609_4 channelBusy:timeavg 0
attr source org_car2x_veins_modules_mac_sigChannelBusy
scalar Scenario.node[83].veinsmobility startTime 1
scalar Scenario.node[83].veinsmobility totalTime 32
scalar Scenario.node[83].veinsmobility stopTime 34
scalar Scenario.node[83].veinsmobility minSpeed 1.8865424470045
scalar Scenario.node[83].veinsmobility maxSpeed 16.002429733195
scalar Scenario.node[83].veinsmobility totalDistance 373.53713735534
scalar Scenario.node[83].veinsmobility totalCO2Emission 116.27947891657
scalar Scenario.node[41].appl generatedWSMs 0
scalar Scenario.node[41].appl receivedWSMs 0
scalar Scenario.node[41].appl generatedBSMs 0
scalar Scenario.node[41].appl receivedBSMs 0
scalar Scenario.node[41].appl generatedWSAs 0
scalar Scenario.node[41].appl receivedWSAs 0
scalar Scenario.node[41].nic.phy80211p busyTime 0
scalar Scenario.node[41].nic.mac1609_4 ReceivedUnicastPackets 0
scalar Scenario.node[41].nic.mac1609_4 ReceivedBroadcasts 0
scalar Scenario.node[41].nic.mac1609_4 SentPackets 0
scalar Scenario.node[41].nic.mac1609_4 SentAcknowledgements 0
scalar Scenario.node[41].nic.mac1609_4 RetriesExceeded 0
scalar Scenario.node[41].nic.mac1609_4 SNIRLostPackets 0
scalar Scenario.node[41].nic.mac1609_4 RXTXLostPackets 0
scalar Scenario.node[41].nic.mac1609_4 TotalLostPackets 0
scalar Scenario.node[41].nic.mac1609_4 DroppedPacketsInMac 0
scalar Scenario.node[41].nic.mac1609_4 TooLittleTime 0
scalar Scenario.node[41].nic.mac1609_4 TimesIntoBackoff 0
scalar Scenario.node[41].nic.mac1609_4 SlotsBackoff 0
scalar Scenario.node[41].nic.mac1609_4 NumInternalContention 0
scalar Scenario.node[41].nic.mac1609_4 totalBusyTime 0
scalar Scenario.node[41].nic.mac1609_4 retriesExceeded:count 0
attr source org_car2x_veins_modules_mac_sigRetriesExceeded
scalar Scenario.node[41].nic.mac1609_4 sentAcks:count 0
attr source org_car2x_veins_modules_mac_sigSentAck
scalar Scenario.node[41].nic.mac1609_4 sentPackets:count 0
attr source org_car2x_veins_modules_mac_sigSentPacket
scalar Scenario.node[41].nic.mac1609_4 collisions:count 0
attr source org_car2x_veins_modules_mac_sigCollision
scalar Scenario.node[41].nic.mac1609_4 channelBusy:timeavg 0
attr source org_car2x_veins_modules_mac_sigChannelBusy
scalar Scenario.node[41].veinsmobility startTime 1
scalar Scenario.node[41].veinsmobility totalTime 34
scalar Scenario.node[41].veinsmobility stopTime 36
scalar Scenario.node[41].veinsmobility minSpeed 0.1954891670539
scalar Scenario.node[41].veinsmobility maxSpeed 12.422144348401
scalar Scenario.node[41].veinsmobility totalDistance 283.38792392489
scalar Scenario.node[41].veinsmobility totalCO2Emission 112.17461896677
scalar Scenario.node[98].appl generatedWSMs 0
scalar Scenario.node[98].appl receivedWSMs 0
scalar Scenario.node[98].appl generatedBSMs 0
scalar Scenario.node[98].appl receivedBSMs 0
scalar Scenario.node[98].appl generatedWSAs 0
scalar Scenario.node[98].appl receivedWSAs 0
scalar Scenario.node[98].nic.phy80211p busyTime 0
scalar Scenario.node[98].nic.mac1609_4 ReceivedUnicastPackets 0
scalar Scenario.node[98].nic.mac1609_4 ReceivedBroadcasts 0
scalar Scenario.node[98].nic.mac1609_4 SentPackets 0
scalar Scenario.node[98].nic.mac1609_4 SentAcknowledgements 0
scalar Scenario.node[98].nic.mac1609_4 RetriesExceeded 0
scalar Scenario.node[98].nic.mac1609_4 SNIRLostPackets 0
scalar Scenario.node[98].nic.mac1609_4 RXTXLostPackets 0
scalar Scenario.node[98].nic.mac1609_4 TotalLostPackets 0
scalar Scenario.node[98].nic.mac1609_4 DroppedPacketsInMac 0
scalar Scenario.node[98].nic.mac1609_4 TooLittleTime 0
scalar Scenario.node[98].nic.mac1609_4 TimesIntoBackoff 0
scalar Scenario.node[98].nic.mac1609_4 SlotsBackoff 0
scalar Scenario.node[98].nic.mac1609_4 NumInternalContention 0
scalar Scenario.node[98].nic.mac1609_4 totalBusyTime 0
scalar Scenario.node[98].nic.mac1609_4 retriesExceeded:count 0
attr source org_car2x_veins_modules_mac_sigRetriesExceeded
scalar Scenario.node[98].nic.mac1609_4 sentAcks:count 0
attr source org_car2x_veins_modules_mac_sigSentAck
scalar Scenario.node[98].nic.mac1609_4 sentPackets:count 0
attr source org_car2x_veins_modules_mac_sigSentPacket
scalar Scenario.node[98].nic.mac1609_4 collisions:count 0
attr source org_car2x_veins_modules_mac_sigCollision
scalar Scenario.node[98].nic.mac1609_4 channelBusy:timeavg 0
attr source org_car2x_veins_modules_mac_sigChannelBusy
scalar Scenario.node[98].veinsmobility startTime 4
scalar Scenario.node[98].veinsmobility totalTime 32
scalar Scenario.node[98].veinsmobility stopTime 37
scalar Scenario.node[98].veinsmobility minSpeed 1.8854387812782
scalar Scenario.node[98].veinsmobility maxSpeed 14.216639444839
scalar Scenario.node[98].veinsmobility totalDistance 368.63351778401
scalar Scenario.node[98].veinsmobility totalCO2Emission 95.664120272081
scalar Scenario.node[44].appl generatedWSMs 0
scalar Scenario.node[44].appl receivedWSMs 0
scalar Scenario.node[44].appl generatedBSMs 0
scalar Scenario.node[44].appl receivedBSMs 0
scalar Scenario.node[44].appl generatedWSAs 0
scalar Scenario.node[44].appl receivedWSAs 0
scalar Scenario.node[44].nic.phy80211p busyTime 0
scalar Scenario.node[44].nic.mac1609_4 ReceivedUnicastPackets 0
scalar Scenario.node[44].nic.mac1609_4 ReceivedBroadcasts 0
scalar Scenario.node[44].nic.mac1609_4 SentPackets 0
scalar Scenario.node[44].nic.mac1609_4 SentAcknowledgements 0
scalar Scenario.node[44].nic.mac1609_4 RetriesExceeded 0
scalar Scenario.node[44].nic.mac1609_4 SNIRLostPackets 0
scalar Scenario.node[44].nic.mac1609_4 RXTXLostPackets 0
scalar Scenario.node[44].nic.mac1609_4 TotalLostPackets 0
scalar Scenario.node[44].nic.mac1609_4 DroppedPacketsInMac 0
scalar Scenario.node[44].nic.mac1609_4 TooLittleTime 0
scalar Scenario.node[44].nic.mac1609_4 TimesIntoBackoff 0
scalar Scenario.node[44].nic.mac1609_4 SlotsBackoff 0
scalar Scenario.node[44].nic.mac1609_4 NumInternalContention 0
scalar Scenario.node[44].nic.mac1609_4 totalBusyTime 0
scalar Scenario.node[44].nic.mac1609_4 retriesExceeded:count 0
attr source org_car2x_veins_modules_mac_sigRetriesExceeded
scalar Scenario.node[44].nic.mac1609_4 sentAcks:count 0
attr source org_car2x_veins_modules_mac_sigSentAck
scalar Scenario.node[44].nic.mac1609_4 sentPackets:count 0
attr source org_car2x_veins_modules_mac_sigSentPacket
scalar Scenario.node[44].nic.mac1609_4 collisions:count 0
attr source org_car2x_veins_modules_mac_sigCollision
scalar Scenario.node[44].nic.mac1609_4 channelBusy:timeavg 0
attr source org_car2x_veins_modules_mac_sigChannelBusy
scalar Scenario.node[44].veinsmobility startTime 1
scalar Scenario.node[44].veinsmobility totalTime 36
scalar Scenario.node[44].veinsmobility stopTime 38
scalar Scenario.node[44].veinsmobility minSpeed 2.1130978513975
scalar Scenario.node[44].veinsmobility maxSpeed 13.17591865798
scalar Scenario.node[44].veinsmobility totalDistance 376.31813751461
scalar Scenario.node[44].veinsmobility totalCO2Emission 127.26514398489
scalar Scenario.node[88].appl generatedWSMs 0
scalar Scenario.node[88].appl receivedWSMs 0
scalar Scenario.node[88].appl generatedBSMs 0
scalar Scenario.node[88].appl receivedBSMs 0
scalar Scenario.node[88].appl generatedWSAs 0
scalar Scenario.node[88].appl receivedWSAs 0
scalar Scenario.node[88].nic.phy80211p busyTime 0
scalar Scenario.node[88].nic.mac1609_4 ReceivedUnicastPackets 0
scalar Scenario.node[88].nic.mac1609_4 ReceivedBroadcasts 0
scalar Scenario.node[88].nic.mac1609_4 SentPackets 0
scalar Scenario.node[88].nic.mac1609_4 SentAcknowledgements 0
scalar Scenario.node[88].nic.mac1609_4 RetriesExceeded 0
scalar Scenario.node[88].nic.mac1609_4 SNIRLostPackets 0
scalar Scenario.node[88].nic.mac1609_4 RXTXLostPackets 0
scalar Scenario.node[88].nic.mac1609_4 TotalLostPackets 0
scalar Scenario.node[88].nic.mac1609_4 DroppedPacketsInMac 0
scalar Scenario.node[88].nic.mac1609_4 TooLittleTime 0
scalar Scenario.node[88].nic.mac1609_4 TimesIntoBackoff 0
scalar Scenario.node[88].nic.mac1609_4 SlotsBackoff 0
scalar Scenario.node[88].nic.mac1609_4 NumInternalContention 0
scalar Scenario.node[88].nic.mac1609_4 totalBusyTime 0
scalar Scenario.node[88].nic.mac1609_4 retriesExceeded:count 0
attr source org_car2x_veins_modules_mac_sigRetriesExceeded
scalar Scenario.node[88].nic.mac1609_4 sentAcks:count 0
attr source org_car2x_veins_modules_mac_sigSentAck
scalar Scenario.node[88].nic.mac1609_4 sentPackets:count 0
attr source org_car2x_veins_modules_mac_sigSentPacket
scalar Scenario.node[88].nic.mac1609_4 collisions:count 0
attr source org_car2x_veins_modules_mac_sigCollision
scalar Scenario.node[88].nic.mac1609_4 channelBusy:timeavg 0
attr source org_car2x_veins_modules_mac_sigChannelBusy
scalar Scenario.node[88].veinsmobility startTime 1
scalar Scenario.node[88].veinsmobility totalTime 36
scalar Scenario.node[88].veinsmobility stopTime 38
scalar Scenario.node[88].veinsmobility minSpeed 2.0152664079564
scalar Scenario.node[88].veinsmobility maxSpeed 17.227065495406
scalar Scenario.node[88].veinsmobility totalDistance 471.50808246816
scalar Scenario.node[88].veinsmobility totalCO2Emission 143.65781052527
scalar Scenario.node[38].appl generatedWSMs 0
scalar Scenario.node[38].appl receivedWSMs 0
scalar Scenario.node[38].appl generatedBSMs 0
scalar Scenario.node[38].appl receivedBSMs 0
scalar Scenario.node[38].appl generatedWSAs 0
scalar Scenario.node[38].appl receivedWSAs 0
scalar Scenario.node[38].nic.phy80211p busyTime 0
scalar Scenario.node[38].nic.mac1609_4 ReceivedUnicastPackets 0
scalar Scenario.node[38].nic.mac1609_4 ReceivedBroadcasts 0
scalar Scenario.node[38].nic.mac1609_4 SentPackets 0
scalar Scenario.node[38].nic.mac1609_4 SentAcknowledgements 0
scalar Scenario.node[38].nic.mac1609_4 RetriesExceeded 0
scalar Scenario.node[38].nic.mac1609_4 SNIRLostPackets 0
scalar Scenario.node[38].nic.mac1609_4 RXTXLostPackets 0
scalar Scenario.node[38].nic.mac1609_4 TotalLostPackets 0
scalar Scenario.node[38].nic.mac1609_4 DroppedPacketsInMac 0
scalar Scenario.node[38].nic.mac1609_4 TooLittleTime 0
scalar Scenario.node[38].nic.mac1609_4 TimesIntoBackoff 0
scalar Scenario.node[38].nic.mac1609_4 SlotsBackoff 0
scalar Scenario.node[38].nic.mac1609_4 NumInternalContention 0
scalar Scenario.node[38].nic.mac1609_4 totalBusyTime 0
scalar Scenario.node[38].nic.mac1609_4 retriesExceeded:count 0
attr source org_car2x_veins_modules_mac_sigRetriesExceeded
scalar Scenario.node[38].nic.mac1609_4 sentAcks:count 0
attr source org_car2x_veins_modules_mac_sigSentAck
scalar Scenario.node[38].nic.mac1609_4 sentPackets:count 0
attr source org_car2x_veins_modules_mac_sigSentPacket
scalar Scenario.node[38].nic.mac1609_4 collisions:count 0
attr source org_car2x_veins_modules_mac_sigCollision
scalar Scenario.node[38].nic.mac1609_4 channelBusy:timeavg 0
attr source org_car2x_veins_modules_mac_sigChannelBusy
scalar Scenario.node[38].veinsmobility startTime 1
scalar Scenario.node[38].veinsmobility totalTime 37
scalar Scenario.node[38].veinsmobility stopTime 39
scalar Scenario.node[38].veinsmobility minSpeed 1.4015385301784
scalar Scenario.node[38].veinsmobility maxSpeed 11.745698181759
scalar Scenario.node[38].veinsmobility totalDistance 370.89405347019
scalar Scenario.node[38].veinsmobility totalCO2Emission 97.654613863129
scalar Scenario.node[47].appl generatedWSMs 0
scalar Scenario.node[47].appl receivedWSMs 0
scalar Scenario.node[47].appl generatedBSMs 0
scalar Scenario.node[47].appl receivedBSMs 0
scalar Scenario.node[47].appl generatedWSAs 0
scalar Scenario.node[47].appl receivedWSAs 0
scalar Scenario.node[47].nic.phy80211p busyTime 0
scalar Scenario.node[47].nic.mac1609_4 ReceivedUnicastPackets 0
scalar Scenario.node[47].nic.mac1609_4 ReceivedBroadcasts 0
scalar Scenario.node[47].nic.mac1609_4 SentPackets 0
scalar Scenario.node[47].nic.mac1609_4 SentAcknowledgements 0
scalar Scenario.node[47].nic.mac1609_4 RetriesExceeded 0
scalar Scenario.node[47].nic.mac1609_4 SNIRLostPackets 0
scalar Scenario.node[47].nic.mac1609_4 RXTXLostPackets 0
scalar Scenario.node[47].nic.mac1609_4 TotalLostPackets 0
scalar Scenario.node[47].nic.mac1609_4 DroppedPacketsInMac 0
scalar Scenario.node[47].nic.mac1609_4 TooLittleTime 0
scalar Scenario.node[47].nic.mac1609_4 TimesIntoBackoff 0
scalar Scenario.node[47].nic.mac1609_4 SlotsBackoff 0
scalar Scenario.node[47].nic.mac1609_4 NumInternalContention 0
scalar Scenario.node[47].nic.mac1609_4 totalBusyTime 0
scalar Scenario.node[47].nic.mac1609_4 retriesExceeded:count 0
attr source org_car2x_veins_modules_mac_sigRetriesExceeded
scalar Scenario.node[47].nic.mac1609_4 sentAcks:count 0
attr source org_car2x_veins_modules_mac_sigSentAck
scalar Scenario.node[47].nic.mac1609_4 sentPackets:count 0
attr source org_car2x_veins_modules_mac_sigSentPacket
scalar Scenario.node[47].nic.mac1609_4 collisions:count 0
attr source org_car2x_veins_modules_mac_sigCollision
scalar Scenario.node[47].nic.mac1609_4 channelBusy:timeavg 0
attr source org_car2x_veins_modules_mac_sigChannelBusy
scalar Scenario.node[47].veinsmobility startTime 1
scalar Scenario.node[47].veinsmobility totalTime 37
scalar Scenario.node[47].veinsmobility stopTime 39
scalar Scenario.node[47].veinsmobility minSpeed 0.69249416554009
scalar Scenario.node[47].veinsmobility maxSpeed 15.137056116918
scalar Scenario.node[47].veinsmobility totalDistance 365.80736402158
scalar Scenario.node[47].veinsmobility totalCO2Emission 142.45639110088
scalar Scenario.node[78].appl generatedWSMs 0
scalar Scenario.node[78].appl receivedWSMs 0
scalar Scenario.node[78].appl generatedBSMs 0
scalar Scenario.node[78].appl receivedBSMs 5
scalar Scenario.node[78].appl generatedWSAs 0
scalar Scenario.node[78].appl receivedWSAs 0
scalar Scenario.node[78].nic.phy80211p busyTime 1.3684210526316e-05
scalar Scenario.node[78].nic.mac1609_4 ReceivedUnicastPackets 0
scalar Scenario.node[78].nic.mac1609_4 ReceivedBroadcasts 5
scalar Scenario.node[78].nic.mac1609_4 SentPackets 0
scalar Scenario.node[78].nic.mac1609_4 SentAcknowledgements 0
scalar Scenario.node[78].nic.mac1609_4 RetriesExceeded 0
scalar Scenario.node[78].nic.mac1609_4 SNIRLostPackets 0
scalar Scenario.node[78].nic.mac1609_4 RXTXLostPackets 0
scalar Scenario.node[78].nic.mac1609_4 TotalLostPackets 0
scalar Scenario.node[78].nic.mac1609_4 DroppedPacketsInMac 0
scalar Scenario.node[78].nic.mac1609_4 TooLittleTime 0
scalar Scenario.node[78].nic.mac1609_4 TimesIntoBackoff 0
scalar Scenario.node[78].nic.mac1609_4 SlotsBackoff 0
scalar Scenario.node[78].nic.mac1609_4 NumInternalContention 0
scalar Scenario.node[78].nic.mac1609_4 totalBusyTime 0.00052
scalar Scenario.node[78].nic.mac1609_4 retriesExceeded:count 0
attr source org_car2x_veins_modules_mac_sigRetriesExceeded
scalar Scenario.node[78].nic.mac1609_4 sentAcks:count 0
attr source org_car2x_veins_modules_mac_sigSentAck
scalar Scenario.node[78].nic.mac1609_4 sentPackets:count 0
attr source org_car2x_veins_modules_mac_sigSentPacket
scalar Scenario.node[78].nic.mac1609_4 collisions:count 0
attr source org_car2x_veins_modules_mac_sigCollision
scalar Scenario.node[78].nic.mac1609_4 channelBusy:timeavg 1.3684210526316e-05
attr source org_car2x_veins_modules_mac_sigChannelBusy
scalar Scenario.node[78].veinsmobility startTime 1
scalar Scenario.node[78].veinsmobility totalTime 37
scalar Scenario.node[78].veinsmobility stopTime 39
scalar Scenario.node[78].veinsmobility minSpeed 2.0045285689412
scalar Scenario.node[78].veinsmobility maxSpeed 12.823934142613
scalar Scenario.node[78].veinsmobility totalDistance 374.78800634948
scalar Scenario.node[78].veinsmobility totalCO2Emission 130.30596458003
scalar Scenario.node[13].appl generatedWSMs 0
scalar Scenario.node[13].appl receivedWSMs 0
scalar Scenario.node[13].appl generatedBSMs 0
scalar Scenario.node[13].appl receivedBSMs 0
scalar Scenario.node[13].appl generatedWSAs 0
scalar Scenario.node[13].appl receivedWSAs 0
scalar Scenario.node[13].nic.phy80211p busyTime 0
scalar Scenario.node[13].nic.mac1609_4 ReceivedUnicastPackets 0
scalar Scenario.node[13].nic.mac1609_4 ReceivedBroadcasts 0
scalar Scenario.node[13].nic.mac1609_4 SentPackets 0
scalar Scenario.node[13].nic.mac1609_4 SentAcknowledgements 0
scalar Scenario.node[13].nic.mac1609_4 RetriesExceeded 0
scalar Scenario.node[13].nic.mac1609_4 SNIRLostPackets 0
scalar Scenario.node[13].nic.mac1609_4 RXTXLostPackets 0
scalar Scenario.node[13].nic.mac1609_4 TotalLostPackets 0
scalar Scenario.node[13].nic.mac1609_4 DroppedPacketsInMac 0
scalar Scenario.node[13].nic.mac1609_4 TooLittleTime 0
scalar Scenario.node[13].nic.mac1609_4 TimesIntoBackoff 0
scalar Scenario.node[13].nic.mac1609_4 SlotsBackoff 0
scalar Scenario.node[13].nic.mac1609_4 NumInternalContention 0
scalar Scenario.node[13].nic.mac1609_4 totalBusyTime 0
scalar Scenario.node[13].nic.mac1609_4 retriesExceeded:count 0
attr source org_car2x_veins_modules_mac_sigRetriesExceeded
scalar Scenario.node[13].nic.mac1609_4 sentAcks:count 0
attr source org_car2x_veins_modules_mac_sigSentAck
scalar Scenario.node[13].nic.mac1609_4 sentPackets:count 0
attr source org_car2x_veins_modules_mac_sigSentPacket
scalar Scenario.node[13].nic.mac1609_4 collisions:count 0
attr source org_car2x_veins_modules_mac_sigCollision
scalar Scenario.node[13].nic.mac1609_4 channelBusy:timeavg 0
attr source org_car2x_veins_modules_mac_sigChannelBusy
scalar Scenario.node[13].veinsmobility startTime 1
scalar Scenario.node[13].veinsmobility totalTime 42
scalar Scenario.node[13].veinsmobility stopTime 44
scalar Scenario.node[13].veinsmobility minSpeed 1.9570178572088
scalar Scenario.node[13].veinsmobility maxSpeed 16.414329796635
scalar Scenario.node[13].veinsmobility totalDistance 477.46457752534
scalar Scenario.node[13].veinsmobility totalCO2Emission 189.89114991602
scalar Scenario.node[97].appl generatedWSMs 0
scalar Scenario.node[97].appl receivedWSMs 0
scalar Scenario.node[97].appl generatedBSMs 0
scalar Scenario.node[97].appl receivedBSMs 0
scalar Scenario.node[97].appl generatedWSAs 0
scalar Scenario.node[97].appl receivedWSAs 0
scalar Scenario.node[97].nic.phy80211p busyTime 0
scalar Scenario.node[97].nic.mac1609_4 ReceivedUnicastPackets 0
scalar Scenario.node[97].nic.mac1609_4 ReceivedBroadcasts 0
scalar Scenario.node[97].nic.mac1609_4 SentPackets 0
scalar Scenario.node[97].nic.mac1609_4 SentAcknowledgements 0
scalar Scenario.node[97].nic.mac1609_4 RetriesExceeded 0
scalar Scenario.node[97].nic.mac1609_4 SNIRLostPackets 0
scalar Scenario.node[97].nic.mac1609_4 RXTXLostPackets 0
scalar Scenario.node[97].nic.mac1609_4 TotalLostPackets 0
scalar Scenario.node[97].nic.mac1609_4 DroppedPacketsInMac 0
scalar Scenario.node[97].nic.mac1609_4 TooLittleTime 0
scalar Scenario.node[97].nic.mac1609_4 TimesIntoBackoff 0
scalar Scenario.node[97].nic.mac1609_4 SlotsBackoff 0
scalar Scenario.node[97].nic.mac1609_4 NumInternalContention 0
scalar Scenario.node[97].nic.mac1609_4 totalBusyTime 0
scalar Scenario.node[97].nic.mac1609_4 retriesExceeded:count 0
attr source org_car2x_veins_modules_mac_sigRetriesExceeded
scalar Scenario.node[97].nic.mac1609_4 sentAcks:count 0
attr source org_car2x_veins_modules_mac_sigSentAck
scalar Scenario.node[97].nic.mac1609_4 sentPackets:count 0
attr source org_car2x_veins_modules_mac_sigSentPacket
scalar Scenario.node[97].nic.mac1609_4 collisions:count 0
attr source org_car2x_veins_modules_mac_sigCollision
scalar Scenario.node[97].nic.mac1609_4 channelBusy:timeavg 0
attr source org_car2x_veins_modules_mac_sigChannelBusy
scalar Scenario.node[97].veinsmobility startTime 4
scalar Scenario.node[97].veinsmobility totalTime 40
scalar Scenario.node[97].veinsmobility stopTime 45
scalar Scenario.node[97].veinsmobility minSpeed 2.4794851154555
scalar Scenario.node[97].veinsmobility maxSpeed 15.231776137996
scalar Scenario.node[97].veinsmobility totalDistance 457.98318569974
scalar Scenario.node[97].veinsmobility totalCO2Emission 151.27937142765
scalar Scenario.node[69].appl generatedWSMs 0
scalar Scenario.node[69].appl receivedWSMs 0
scalar Scenario.node[69].appl generatedBSMs 0
scalar Scenario.node[69].appl receivedBSMs 0
scalar Scenario.node[69].appl generatedWSAs 0
scalar Scenario.node[69].appl receivedWSAs 0
scalar Scenario.node[69].nic.phy80211p busyTime 0
scalar Scenario.node[69].nic.mac1609_4 ReceivedUnicastPackets 0
scalar Scenario.node[69].nic.mac1609_4 ReceivedBroadcasts 0
scalar Scenario.node[69].nic.mac1609_4 SentPackets 0
scalar Scenario.node[69].nic.mac1609_4 SentAcknowledgements 0
scalar Scenario.node[69].nic.mac1609_4 RetriesExceeded 0
scalar Scenario.node[69].nic.mac1609_4 SNIRLostPackets 0
scalar Scenario.node[69].nic.mac1609_4 RXTXLostPackets 0
scalar Scenario.node[69].nic.mac1609_4 TotalLostPackets 0
scalar Scenario.node[69].nic.mac1609_4 DroppedPacketsInMac 0
scalar Scenario.node[69].nic.mac1609_4 TooLittleTime 0
scalar Scenario.node[69].nic.mac1609_4 TimesIntoBackoff 0
scalar Scenario.node[69].nic.mac1609_4 SlotsBackoff 0
scalar Scenario.node[69].nic.mac1609_4 NumInternalContention 0
scalar Scenario.node[69].nic.mac1609_4 totalBusyTime 0
scalar Scenario.node[69].nic.mac1609_4 retriesExceeded:count 0
attr source org_car2x_veins_modules_mac_sigRetriesExceeded
scalar Scenario.node[69].nic.mac1609_4 sentAcks:count 0
attr source org_car2x_veins_modules_mac_sigSentAck
scalar Scenario.node[69].nic.mac1609_4 sentPackets:count 0
attr source org_car2x_veins_modules_mac_sigSentPacket
scalar Scenario.node[69].nic.mac1609_4 collisions:count 0
attr source org_car2x_veins_modules_mac_sigCollision
scalar Scenario.node[69].nic.mac1609_4 channelBusy:timeavg 0
attr source org_car2x_veins_modules_mac_sigChannelBusy
scalar Scenario.node[69].veinsmobility startTime 1
scalar Scenario.node[69].veinsmobility totalTime 44
scalar Scenario.node[69].veinsmobility stopTime 46
scalar Scenario.node[69].veinsmobility minSpeed 1.0622095381752
scalar Scenario.node[69].veinsmobility maxSpeed 14.637643135277
scalar Scenario.node[69].veinsmobility totalDistance 483.11111442424
scalar Scenario.node[69].veinsmobility totalCO2Emission 154.097913639
scalar Scenario.node[92].appl generatedWSMs 0
scalar Scenario.node[92].appl receivedWSMs 0
scalar Scenario.node[92].appl generatedBSMs 0
scalar Scenario.node[92].appl receivedBSMs 0
scalar Scenario.node[92].appl generatedWSAs 0
scalar Scenario.node[92].appl receivedWSAs 0
scalar Scenario.node[92].nic.phy80211p busyTime 0
scalar Scenario.node[92].nic.mac1609_4 ReceivedUnicastPackets 0
scalar Scenario.node[92].nic.mac1609_4 ReceivedBroadcasts 0
scalar Scenario.node[92].nic.mac1609_4 SentPackets 0
scalar Scenario.node[92].nic.mac1609_4 SentAcknowledgements 0
scalar Scenario.node[92].nic.mac1609_4 RetriesExceeded 0
scalar Scenario.node[92].nic.mac1609_4 SNIRLostPackets 0
scalar Scenario.node[92].nic.mac1609_4 RXTXLostPackets 0
scalar Scenario.node[92].nic.mac1609_4 TotalLostPackets 0
scalar Scenario.node[92].nic.mac1609_4 DroppedPacketsInMac 0
scalar Scenario.node[92].nic.mac1609_4 TooLittleTime 0
scalar Scenario.node[92].nic.mac1609_4 TimesIntoBackoff 0
scalar Scenario.node[92].nic.mac1609_4 SlotsBackoff 0
scalar Scenario.node[92].nic.mac1609_4 NumInternalContention 0
scalar Scenario.node[92].nic.mac1609_4 totalBusyTime 0
scalar Scenario.node[92].nic.mac1609_4 retriesExceeded:count 0
attr source org_car2x_veins_modules_mac_sigRetriesExceeded
scalar Scenario.node[92].nic.mac1609_4 sentAcks:count 0
attr source org_car2x_veins_modules_mac_sigSentAck
scalar Scenario.node[92].nic.mac1609_4 sentPackets:count 0
attr source org_car2x_veins_modules_mac_sigSentPacket
scalar Scenario.node[92].nic.mac1609_4 collisions:count 0
attr source org_car2x_veins_modules_mac_sigCollision
scalar Scenario.node[92].nic.mac1609_4 channelBusy:timeavg 0
attr source org_car2x_veins_modules_mac_sigChannelBusy
scalar Scenario.node[92].veinsmobility startTime 4
scalar Scenario.node[92].veinsmobility totalTime 41
scalar Scenario.node[92].veinsmobility stopTime 46
scalar Scenario.node[92].veinsmobility minSpeed 2.0844450560166
scalar Scenario.node[92].veinsmobility maxSpeed 15.400418500883
scalar Scenario.node[92].veinsmobility totalDistance 473.17435880867
scalar Scenario.node[92].veinsmobility totalCO2Emission 160.2269698941
scalar Scenario.node[81].appl generatedWSMs 0
scalar Scenario.node[81].appl receivedWSMs 0
scalar Scenario.node[81].appl generatedBSMs 0
scalar Scenario.node[81].appl receivedBSMs 0
scalar Scenario.node[81].appl generatedWSAs 0
scalar Scenario.node[81].appl receivedWSAs 0
scalar Scenario.node[81].nic.phy80211p busyTime 0
scalar Scenario.node[81].nic.mac1609_4 ReceivedUnicastPackets 0
scalar Scenario.node[81].nic.mac1609_4 ReceivedBroadcasts 0
scalar Scenario.node[81].nic.mac1609_4 SentPackets 0
scalar Scenario.node[81].nic.mac1609_4 SentAcknowledgements 0
scalar Scenario.node[81].nic.mac1609_4 RetriesExceeded 0
scalar Scenario.node[81].nic.mac1609_4 SNIRLostPackets 0
scalar Scenario.node[81].nic.mac1609_4 RXTXLostPackets 0
scalar Scenario.node[81].nic.mac1609_4 TotalLostPackets 0
scalar Scenario.node[81].nic.mac1609_4 DroppedPacketsInMac 0
scalar Scenario.node[81].nic.mac1609_4 TooLittleTime 0
scalar Scenario.node[81].nic.mac1609_4 TimesIntoBackoff 0
scalar Scenario.node[81].nic.mac1609_4 SlotsBackoff 0
scalar Scenario.node[81].nic.mac1609_4 NumInternalContention 0
scalar Scenario.node[81].nic.mac1609_4 totalBusyTime 0
scalar Scenario.node[81].nic.mac1609_4 retriesExceeded:count 0
attr source org_car2x_veins_modules_mac_sigRetriesExceeded
scalar Scenario.node[81].nic.mac1609_4 sentAcks:count 0
attr source org_car2x_veins_modules_mac_sigSentAck
scalar Scenario.node[81].nic.mac1609_4 sentPackets:count 0
attr source org_car2x_veins_modules_mac_sigSentPacket
scalar Scenario.node[81].nic.mac1609_4 collisions:count 0
attr source org_car2x_veins_modules_mac_sigCollision
scalar Scenario.node[81].nic.mac1609_4 channelBusy:timeavg 0
attr source org_car2x_veins_modules_mac_sigChannelBusy
scalar Scenario.node[81].veinsmobility startTime 1
scalar Scenario.node[81].veinsmobility totalTime 44
scalar Scenario.node[81].veinsmobility stopTime 46
scalar Scenario.node[81].veinsmobility minSpeed 1.7627893261844
scalar Scenario.node[81].veinsmobility maxSpeed 12.521665315987
scalar Scenario.node[81].veinsmobility totalDistance 465.58847011741
scalar Scenario.node[81].veinsmobility totalCO2Emission 126.53868948342
scalar Scenario.node[85].appl generatedWSMs 0
scalar Scenario.node[85].appl receivedWSMs 0
scalar Scenario.node[85].appl generatedBSMs 0
scalar Scenario.node[85].appl receivedBSMs 0
scalar Scenario.node[85].appl generatedWSAs 0
scalar Scenario.node[85].appl receivedWSAs 0
scalar Scenario.node[85].nic.phy80211p busyTime 0
scalar Scenario.node[85].nic.mac1609_4 ReceivedUnicastPackets 0
scalar Scenario.node[85].nic.mac1609_4 ReceivedBroadcasts 0
scalar Scenario.node[85].nic.mac1609_4 SentPackets 0
scalar Scenario.node[85].nic.mac1609_4 SentAcknowledgements 0
scalar Scenario.node[85].nic.mac1609_4 RetriesExceeded 0
scalar Scenario.node[85].nic.mac1609_4 SNIRLostPackets 0
scalar Scenario.node[85].nic.mac1609_4 RXTXLostPackets 0
scalar Scenario.node[85].nic.mac1609_4 TotalLostPackets 0
scalar Scenario.node[85].nic.mac1609_4 DroppedPacketsInMac 0
scalar Scenario.node[85].nic.mac1609_4 TooLittleTime 0
scalar Scenario.node[85].nic.mac1609_4 TimesIntoBackoff 0
scalar Scenario.node[85].nic.mac1609_4 SlotsBackoff 0
scalar Scenario.node[85].nic.mac1609_4 NumInternalContention 0
scalar Scenario.node[85].nic.mac1609_4 totalBusyTime 0
scalar Scenario.node[85].nic.mac1609_4 retriesExceeded:count 0
attr source org_car2x_veins_modules_mac_sigRetriesExceeded
scalar Scenario.node[85].nic.mac1609_4 sentAcks:count 0
attr source org_car2x_veins_modules_mac_sigSentAck
scalar Scenario.node[85].nic.mac1609_4 sentPackets:count 0
attr source org_car2x_veins_modules_mac_sigSentPacket
scalar Scenario.node[85].nic.mac1609_4 collisions:count 0
attr source org_car2x_veins_modules_mac_sigCollision
scalar Scenario.node[85].nic.mac1609_4 channelBusy:timeavg 0
attr source org_car2x_veins_modules_mac_sigChannelBusy
scalar Scenario.node[85].veinsmobility startTime 1
scalar Scenario.node[85].veinsmobility totalTime 46
scalar Scenario.node[85].veinsmobility stopTime 48
scalar Scenario.node[85].veinsmobility minSpeed 1.4771120201563
scalar Scenario.node[85].veinsmobility maxSpeed 14.020298941436
scalar Scenario.node[85].veinsmobility totalDistance 558.59805154009
scalar Scenario.node[85].veinsmobility totalCO2Emission 135.90323802633
scalar Scenario.node[53].appl generatedWSMs 0
scalar Scenario.node[53].appl receivedWSMs 0
scalar Scenario.node[53].appl generatedBSMs 0
scalar Scenario.node[53].appl receivedBSMs 0
scalar Scenario.node[53].appl generatedWSAs 0
scalar Scenario.node[53].appl receivedWSAs 0
scalar Scenario.node[53].nic.phy80211p busyTime 0
scalar Scenario.node[53].nic.mac1609_4 ReceivedUnicastPackets 0
scalar Scenario.node[53].nic.mac1609_4 ReceivedBroadcasts 0
scalar Scenario.node[53].nic.mac1609_4 SentPackets 0
scalar Scenario.node[53].nic.mac1609_4 SentAcknowledgements 0
scalar Scenario.node[53].nic.mac1609_4 RetriesExceeded 0
scalar Scenario.node[53].nic.mac1609_4 SNIRLostPackets 0
scalar Scenario.node[53].nic.mac1609_4 RXTXLostPackets 0
scalar Scenario.node[53].nic.mac1609_4 TotalLostPackets 0
scalar Scenario.node[53].nic.mac1609_4 DroppedPacketsInMac 0
scalar Scenario.node[53].nic.mac1609_4 TooLittleTime 0
scalar Scenario.node[53].nic.mac1609_4 TimesIntoBackoff 0
scalar Scenario.node[53].nic.mac1609_4 SlotsBackoff 0
scalar Scenario.node[53].nic.mac1609_4 NumInternalContention 0
scalar Scenario.node[53].nic.mac1609_4 totalBusyTime 0
scalar Scenario.node[53].nic.mac1609_4 retriesExceeded:count 0
attr source org_car2x_veins_modules_mac_sigRetriesExceeded
scalar Scenario.node[53].nic.mac1609_4 sentAcks:count 0
attr source org_car2x_veins_modules_mac_sigSentAck
scalar Scenario.node[53].nic.mac1609_4 sentPackets:count 0
attr source org_car2x_veins_modules_mac_sigSentPacket
scalar Scenario.node[53].nic.mac1609_4 collisions:count 0
attr source org_car2x_veins_modules_mac_sigCollision
scalar Scenario.node[53].nic.mac1609_4 channelBusy:timeavg 0
attr source org_car2x_veins_modules_mac_sigChannelBusy
scalar Scenario.node[53].veinsmobility startTime 1
scalar Scenario.node[53].veinsmobility totalTime 47
scalar Scenario.node[53].veinsmobility stopTime 49
scalar Scenario.node[53].veinsmobility minSpeed 1.8950087713078
scalar Scenario.node[53].veinsmobility maxSpeed 16.397375260205
scalar Scenario.node[53].veinsmobility totalDistance 553.84685027349
scalar Scenario.node[53].veinsmobility totalCO2Emission 198.64705954176
scalar Scenario.node[87].appl generatedWSMs 0
scalar Scenario.node[87].appl receivedWSMs 0
scalar Scenario.node[87].appl generatedBSMs 0
scalar Scenario.node[87].appl receivedBSMs 0
scalar Scenario.node[87].appl generatedWSAs 0
scalar Scenario.node[87].appl receivedWSAs 0
scalar Scenario.node[87].nic.phy80211p busyTime 0
scalar Scenario.node[87].nic.mac1609_4 ReceivedUnicastPackets 0
scalar Scenario.node[87].nic.mac1609_4 ReceivedBroadcasts 0
scalar Scenario.node[87].nic.mac1609_4 SentPackets 0
scalar Scenario.node[87].nic.mac1609_4 SentAcknowledgements 0
scalar Scenario.node[87].nic.mac1609_4 RetriesExceeded 0
scalar Scenario.node[87].nic.mac1609_4 SNIRLostPackets 0
scalar Scenario.node[87].nic.mac1609_4 RXTXLostPackets 0
scalar Scenario.node[87].nic.mac1609_4 TotalLostPackets 0
scalar Scenario.node[87].nic.mac1609_4 DroppedPacketsInMac 0
scalar Scenario.node[87].nic.mac1609_4 TooLittleTime 0
scalar Scenario.node[87].nic.mac1609_4 TimesIntoBackoff 0
scalar Scenario.node[87].nic.mac1609_4 SlotsBackoff 0
scalar Scenario.node[87].nic.mac1609_4 NumInternalContention 0
scalar Scenario.node[87].nic.mac1609_4 totalBusyTime 0
scalar Scenario.node[87].nic.mac1609_4 retriesExceeded:count 0
attr source org_car2x_veins_modules_mac_sigRetriesExceeded
scalar Scenario.node[87].nic.mac1609_4 sentAcks:count 0
attr source org_car2x_veins_modules_mac_sigSentAck
scalar Scenario.node[87].nic.mac1609_4 sentPackets:count 0
attr source org_car2x_veins_modules_mac_sigSentPacket
scalar Scenario.node[87].nic.mac1609_4 collisions:count 0
attr source org_car2x_veins_modules_mac_sigCollision
scalar Scenario.node[87].nic.mac1609_4 channelBusy:timeavg 0
attr source org_car2x_veins_modules_mac_sigChannelBusy
scalar Scenario.node[87].veinsmobility startTime 1
scalar Scenario.node[87].veinsmobility totalTime 47
scalar Scenario.node[87].veinsmobility stopTime 49
scalar Scenario.node[87].veinsmobility minSpeed 2.1996845621383
scalar Scenario.node[87].veinsmobility maxSpeed 12.175375777317
scalar Scenario.node[87].veinsmobility totalDistance 464.12530574484
scalar Scenario.node[87].veinsmobility totalCO2Emission 140.47198361013
scalar Scenario.node[6].appl generatedWSMs 0
scalar Scenario.node[6].appl receivedWSMs 0
scalar Scenario.node[6].appl generatedBSMs 0
scalar Scenario.node[6].appl receivedBSMs 0
scalar Scenario.node[6].appl generatedWSAs 0
scalar Scenario.node[6].appl receivedWSAs 0
scalar Scenario.node[6].nic.phy80211p busyTime 0
scalar Scenario.node[6].nic.mac1609_4 ReceivedUnicastPackets 0
scalar Scenario.node[6].nic.mac1609_4 ReceivedBroadcasts 0
scalar Scenario.node[6].nic.mac1609_4 SentPackets 0
scalar Scenario.node[6].nic.mac1609_4 SentAcknowledgements 0
scalar Scenario.node[6].nic.mac1609_4 RetriesExceeded 0
scalar Scenario.node[6].nic.mac1609_4 SNIRLostPackets 0
scalar Scenario.node[6].nic.mac1609_4 RXTXLostPackets 0
scalar Scenario.node[6].nic.mac1609_4 TotalLostPackets 0
scalar Scenario.node[6].nic.mac1609_4 DroppedPacketsInMac 0
scalar Scenario.node[6].nic.mac1609_4 TooLittleTime 0
scalar Scenario.node[6].nic.mac1609_4 TimesIntoBackoff 0
scalar Scenario.node[6].nic.mac1609_4 SlotsBackoff 0
scalar Scenario.node[6].nic.mac1609_4 NumInternalContention 0
scalar Scenario.node[6].nic.mac1609_4 totalBusyTime 0
scalar Scenario.node[6].nic.mac1609_4 retriesExceeded:count 0
attr source org_car2x_veins_modules_mac_sigRetriesExceeded
scalar Scenario.node[6].nic.mac1609_4 sentAcks:count 0
attr source org_car2x_veins_modules_mac_sigSentAck
scalar Scenario.node[6].nic.mac1609_4 sentPackets:count 0
attr source org_car2x_veins_modules_mac_sigSentPacket
scalar Scenario.node[6].nic.mac1609_4 collisions:count 0
attr source org_car2x_veins_modules_mac_sigCollision
scalar Scenario.node[6].nic.mac1609_4 channelBusy:timeavg 0
attr source org_car2x_veins_modules_mac_sigChannelBusy
scalar Scenario.node[6].veinsmobility startTime 1
scalar Scenario.node[6].veinsmobility totalTime 48
scalar Scenario.node[6].veinsmobility stopTime 50
scalar Scenario.node[6].veinsmobility minSpeed 0.33526233213201
scalar Scenario.node[6].veinsmobility maxSpeed 14.339741659123
scalar Scenario.node[6].veinsmobility totalDistance 482.61222645633
scalar Scenario.node[6].veinsmobility totalCO2Emission 175.19097540154
scalar Scenario.node[29].appl generatedWSMs 0
scalar Scenario.node[29].appl receivedWSMs 0
scalar Scenario.node[29].appl generatedBSMs 0
scalar Scenario.node[29].appl receivedBSMs 0
scalar Scenario.node[29].appl generatedWSAs 0
scalar Scenario.node[29].appl receivedWSAs 0
scalar Scenario.node[29].nic.phy80211p busyTime 0
scalar Scenario.node[29].nic.mac1609_4 ReceivedUnicastPackets 0
scalar Scenario.node[29].nic.mac1609_4 ReceivedBroadcasts 0
scalar Scenario.node[29].nic.mac1609_4 SentPackets 0
scalar Scenario.node[29].nic.mac1609_4 SentAcknowledgements 0
scalar Scenario.node[29].nic.mac1609_4 RetriesExceeded 0
scalar Scenario.node[29].nic.mac1609_4 SNIRLostPackets 0
scalar Scenario.node[29].nic.mac1609_4 RXTXLostPackets 0
scalar Scenario.node[29].nic.mac1609_4 TotalLostPackets 0
scalar Scenario.node[29].nic.mac1609_4 DroppedPacketsInMac 0
scalar Scenario.node[29].nic.mac1609_4 TooLittleTime 0
scalar Scenario.node[29].nic.mac1609_4 TimesIntoBackoff 0
scalar Scenario.node[29].nic.mac1609_4 SlotsBackoff 0
scalar Scenario.node[29].nic.mac1609_4 NumInternalContention 0
scalar Scenario.node[29].nic.mac1609_4 totalBusyTime 0
scalar Scenario.node[29].nic.mac1609_4 retriesExceeded:count 0
attr source org_car2x_veins_modules_mac_sigRetriesExceeded
scalar Scenario.node[29].nic.mac1609_4 sentAcks:count 0
attr source org_car2x_veins_modules_mac_sigSentAck
scalar Scenario.node[29].nic.mac1609_4 sentPackets:count 0
attr source org_car2x_veins_modules_mac_sigSentPacket
scalar Scenario.node[29].nic.mac1609_4 collisions:count 0
attr source org_car2x_veins_modules_mac_sigCollision
scalar Scenario.node[29].nic.mac1609_4 channelBusy:timeavg 0
attr source org_car2x_veins_modules_mac_sigChannelBusy
scalar Scenario.node[29].veinsmobility startTime 1
scalar Scenario.node[29].veinsmobility totalTime 50
scalar Scenario.node[29].veinsmobility stopTime 52
scalar Scenario.node[29].veinsmobility minSpeed 1.3036597494269
scalar Scenario.node[29].veinsmobility maxSpeed 13.113253504128
scalar Scenario.node[29].veinsmobility totalDistance 563.34293281209
scalar Scenario.node[29].veinsmobility totalCO2Emission 138.03441057737
scalar Scenario.node[36].appl generatedWSMs 0
scalar Scenario.node[36].appl receivedWSMs 0
scalar Scenario.node[36].appl generatedBSMs 0
scalar Scenario.node[36].appl receivedBSMs 2
scalar Scenario.node[36].appl generatedWSAs 0
scalar Scenario.node[36].appl receivedWSAs 0
scalar Scenario.node[36].nic.phy80211p busyTime 4e-06
scalar Scenario.node[36].nic.mac1609_4 ReceivedUnicastPackets 0
scalar Scenario.node[36].nic.mac1609_4 ReceivedBroadcasts 2
scalar Scenario.node[36].nic.mac1609_4 SentPackets 0
scalar Scenario.node[36].nic.mac1609_4 SentAcknowledgements 0
scalar Scenario.node[36].nic.mac1609_4 RetriesExceeded 0
scalar Scenario.node[36].nic.mac1609_4 SNIRLostPackets 0
scalar Scenario.node[36].nic.mac1609_4 RXTXLostPackets 0
scalar Scenario.node[36].nic.mac1609_4 TotalLostPackets 0
scalar Scenario.node[36].nic.mac1609_4 DroppedPacketsInMac 0
scalar Scenario.node[36].nic.mac1609_4 TooLittleTime 0
scalar Scenario.node[36].nic.mac1609_4 TimesIntoBackoff 0
scalar Scenario.node[36].nic.mac1609_4 SlotsBackoff 0
scalar Scenario.node[36].nic.mac1609_4 NumInternalContention 0
scalar Scenario.node[36].nic.mac1609_4 totalBusyTime 0.000208
scalar Scenario.node[36].nic.mac1609_4 retriesExceeded:count 0
attr source org_car2x_veins_modules_mac_sigRetriesExceeded
scalar Scenario.node[36].nic.mac1609_4 sentAcks:count 0
attr source org_car2x_veins_modules_mac_sigSentAck
scalar Scenario.node[36].nic.mac1609_4 sentPackets:count 0
attr source org_car2x_veins_modules_mac_sigSentPacket
scalar Scenario.node[36].nic.mac1609_4 collisions:count 0
attr source org_car2x_veins_modules_mac_sigCollision
scalar Scenario.node[36].nic.mac1609_4 channelBusy:timeavg 4e-06
attr source org_car2x_veins_modules_mac_sigChannelBusy
scalar Scenario.node[36].veinsmobility startTime 1
scalar Scenario.node[36].veinsmobility totalTime 51
scalar Scenario.node[36].veinsmobility stopTime 53
scalar Scenario.node[36].veinsmobility minSpeed 0.065692734404971
scalar Scenario.node[36].veinsmobility maxSpeed 12.220652026509
scalar Scenario.node[36].veinsmobility totalDistance 474.52502611948
scalar Scenario.node[36].veinsmobility totalCO2Emission 155.02989104737
scalar Scenario.node[77].appl generatedWSMs 0
scalar Scenario.node[77].appl receivedWSMs 0
scalar Scenario.node[77].appl generatedBSMs 0
scalar Scenario.node[77].appl receivedBSMs 0
scalar Scenario.node[77].appl generatedWSAs 0
scalar Scenario.node[77].appl receivedWSAs 0
scalar Scenario.node[77].nic.phy80211p busyTime 0
scalar Scenario.node[77].nic.mac1609_4 ReceivedUnicastPackets 0
scalar Scenario.node[77].nic.mac1609_4 ReceivedBroadcasts 0
scalar Scenario.node[77].nic.mac1609_4 SentPackets 0
scalar Scenario.node[77].nic.mac1609_4 SentAcknowledgements 0
scalar Scenario.node[77].nic.mac1609_4 RetriesExceeded 0
scalar Scenario.node[77].nic.mac1609_4 SNIRLostPackets 0
scalar Scenario.node[77].nic.mac1609_4 RXTXLostPackets 0
scalar Scenario.node[77].nic.mac1609_4 TotalLostPackets 0
scalar Scenario.node[77].nic.mac1609_4 DroppedPacketsInMac 0
scalar Scenario.node[77].nic.mac1609_4 TooLittleTime 0
scalar Scenario.node[77].nic.mac1609_4 TimesIntoBackoff 0
scalar Scenario.node[77].nic.mac1609_4 SlotsBackoff 0
scalar Scenario.node[77].nic.mac1609_4 NumInternalContention 0
scalar Scenario.node[77].nic.mac1609_4 totalBusyTime 0
scalar Scenario.node[77].nic.mac1609_4 retriesExceeded:count 0
attr source org_car2x_veins_modules_mac_sigRetriesExceeded
scalar Scenario.node[77].nic.mac1609_4 sentAcks:count 0
attr source org_car2x_veins_modules_mac_sigSentAck
scalar Scenario.node[77].nic.mac1609_4 sentPackets:count 0
attr source org_car2x_veins_modules_mac_sigSentPacket
scalar Scenario.node[77].nic.mac1609_4 collisions:count 0
attr source org_car2x_veins_modules_mac_sigCollision
scalar Scenario.node[77].nic.mac1609_4 channelBusy:timeavg 0
attr source org_car2x_veins_modules_mac_sigChannelBusy
scalar Scenario.node[77].veinsmobility startTime 1
scalar Scenario.node[77].veinsmobility totalTime 52
scalar Scenario.node[77].veinsmobility stopTime 54
scalar Scenario.node[77].veinsmobility minSpeed 1.7431896411348
scalar Scenario.node[77].veinsmobility maxSpeed 14.361449622012
scalar Scenario.node[77].veinsmobility totalDistance 671.37502166049
scalar Scenario.node[77].veinsmobility totalCO2Emission 138.66174385601
scalar Scenario.node[14].appl generatedWSMs 0
scalar Scenario.node[14].appl receivedWSMs 0
scalar Scenario.node[14].appl generatedBSMs 0
scalar Scenario.node[14].appl receivedBSMs 0
scalar Scenario.node[14].appl generatedWSAs 0
scalar Scenario.node[14].appl receivedWSAs 0
scalar Scenario.node[14].nic.phy80211p busyTime 0
scalar Scenario.node[14].nic.mac1609_4 ReceivedUnicastPackets 0
scalar Scenario.node[14].nic.mac1609_4 ReceivedBroadcasts 0
scalar Scenario.node[14].nic.mac1609_4 SentPackets 0
scalar Scenario.node[14].nic.mac1609_4 SentAcknowledgements 0
scalar Scenario.node[14].nic.mac1609_4 RetriesExceeded 0
scalar Scenario.node[14].nic.mac1609_4 SNIRLostPackets 0
scalar Scenario.node[14].nic.mac1609_4 RXTXLostPackets 0
scalar Scenario.node[14].nic.mac1609_4 TotalLostPackets 0
scalar Scenario.node[14].nic.mac1609_4 DroppedPacketsInMac 0
scalar Scenario.node[14].nic.mac1609_4 TooLittleTime 0
scalar Scenario.node[14].nic.mac1609_4 TimesIntoBackoff 0
scalar Scenario.node[14].nic.mac1609_4 SlotsBackoff 0
scalar Scenario.node[14].nic.mac1609_4 NumInternalContention 0
scalar Scenario.node[14].nic.mac1609_4 totalBusyTime 0
scalar Scenario.node[14].nic.mac1609_4 retriesExceeded:count 0
attr source org_car2x_veins_modules_mac_sigRetriesExceeded
scalar Scenario.node[14].nic.mac1609_4 sentAcks:count 0
attr source org_car2x_veins_modules_mac_sigSentAck
scalar Scenario.node[14].nic.mac1609_4 sentPackets:count 0
attr source org_car2x_veins_modules_mac_sigSentPacket
scalar Scenario.node[14].nic.mac1609_4 collisions:count 0
attr source org_car2x_veins_modules_mac_sigCollision
scalar Scenario.node[14].nic.mac1609_4 channelBusy:timeavg 0
attr source org_car2x_veins_modules_mac_sigChannelBusy
scalar Scenario.node[14].veinsmobility startTime 1
scalar Scenario.node[14].veinsmobility totalTime 54
scalar Scenario.node[14].veinsmobility stopTime 56
scalar Scenario.node[14].veinsmobility minSpeed 1.5147052048706
scalar Scenario.node[14].veinsmobility maxSpeed 12.283898762996
scalar Scenario.node[14].veinsmobility totalDistance 566.94351303383
scalar Scenario.node[14].veinsmobility totalCO2Emission 150.67908867732
scalar Scenario.node[12].appl generatedWSMs 0
scalar Scenario.node[12].appl receivedWSMs 0
scalar Scenario.node[12].appl generatedBSMs 0
scalar Scenario.node[12].appl receivedBSMs 18
scalar Scenario.node[12].appl generatedWSAs 0
scalar Scenario.node[12].appl receivedWSAs 0
scalar Scenario.node[12].nic.phy80211p busyTime 7.9857142857143e-05
scalar Scenario.node[12].nic.mac1609_4 ReceivedUnicastPackets 0
scalar Scenario.node[12].nic.mac1609_4 ReceivedBroadcasts 18
scalar Scenario.node[12].nic.mac1609_4 SentPackets 0
scalar Scenario.node[12].nic.mac1609_4 SentAcknowledgements 0
scalar Scenario.node[12].nic.mac1609_4 RetriesExceeded 0
scalar Scenario.node[12].nic.mac1609_4 SNIRLostPackets 25
scalar Scenario.node[12].nic.mac1609_4 RXTXLostPackets 0
scalar Scenario.node[12].nic.mac1609_4 TotalLostPackets 25
scalar Scenario.node[12].nic.mac1609_4 DroppedPacketsInMac 0
scalar Scenario.node[12].nic.mac1609_4 TooLittleTime 0
scalar Scenario.node[12].nic.mac1609_4 TimesIntoBackoff 0
scalar Scenario.node[12].nic.mac1609_4 SlotsBackoff 0
scalar Scenario.node[12].nic.mac1609_4 NumInternalContention 0
scalar Scenario.node[12].nic.mac1609_4 totalBusyTime 0.004472
scalar Scenario.node[12].nic.mac1609_4 retriesExceeded:count 0
attr source org_car2x_veins_modules_mac_sigRetriesExceeded
scalar Scenario.node[12].nic.mac1609_4 sentAcks:count 0
attr source org_car2x_veins_modules_mac_sigSentAck
scalar Scenario.node[12].nic.mac1609_4 sentPackets:count 0
attr source org_car2x_veins_modules_mac_sigSentPacket
scalar Scenario.node[12].nic.mac1609_4 collisions:count 0
attr source org_car2x_veins_modules_mac_sigCollision
scalar Scenario.node[12].nic.mac1609_4 channelBusy:timeavg 7.9857142857143e-05
attr source org_car2x_veins_modules_mac_sigChannelBusy
scalar Scenario.node[12].veinsmobility startTime 1
scalar Scenario.node[12].veinsmobility totalTime 55
scalar Scenario.node[12].veinsmobility stopTime 57
scalar Scenario.node[12].veinsmobility minSpeed 0
scalar Scenario.node[12].veinsmobility maxSpeed 14.174768234283
scalar Scenario.node[12].veinsmobility totalDistance 484.89895633988
scalar Scenario.node[12].veinsmobility totalCO2Emission 170.14972564505
scalar Scenario.node[89].appl generatedWSMs 0
scalar Scenario.node[89].appl receivedWSMs 0
scalar Scenario.node[89].appl generatedBSMs 0
scalar Scenario.node[89].appl receivedBSMs 0
scalar Scenario.node[89].appl generatedWSAs 0
scalar Scenario.node[89].appl receivedWSAs 0
scalar Scenario.node[89].nic.phy80211p busyTime 0
scalar Scenario.node[89].nic.mac1609_4 ReceivedUnicastPackets 0
scalar Scenario.node[89].nic.mac1609_4 ReceivedBroadcasts 0
scalar Scenario.node[89].nic.mac1609_4 SentPackets 0
scalar Scenario.node[89].nic.mac1609_4 SentAcknowledgements 0
scalar Scenario.node[89].nic.mac1609_4 RetriesExceeded 0
scalar Scenario.node[89].nic.mac1609_4 SNIRLostPackets 0
scalar Scenario.node[89].nic.mac1609_4 RXTXLostPackets 0
scalar Scenario.node[89].nic.mac1609_4 TotalLostPackets 0
scalar Scenario.node[89].nic.mac1609_4 DroppedPacketsInMac 0
scalar Scenario.node[89].nic.mac1609_4 TooLittleTime 0
scalar Scenario.node[89].nic.mac1609_4 TimesIntoBackoff 0
scalar Scenario.node[89].nic.mac1609_4 SlotsBackoff 0
scalar Scenario.node[89].nic.mac1609_4 NumInternalContention 0
scalar Scenario.node[89].nic.mac1609_4 totalBusyTime 0
scalar Scenario.node[89].nic.mac1609_4 retriesExceeded:count 0
attr source org_car2x_veins_modules_mac_sigRetriesExceeded
scalar Scenario.node[89].nic.mac1609_4 sentAcks:count 0
attr source org_car2x_veins_modules_mac_sigSentAck
scalar Scenario.node[89].nic.mac1609_4 sentPackets:count 0
attr source org_car2x_veins_modules_mac_sigSentPacket
scalar Scenario.node[89].nic.mac1609_4 collisions:count 0
attr source org_car2x_veins_modules_mac_sigCollision
scalar Scenario.node[89].nic.mac1609_4 channelBusy:timeavg 0
attr source org_car2x_veins_modules_mac_sigChannelBusy
scalar Scenario.node[89].veinsmobility startTime 4
scalar Scenario.node[89].veinsmobility totalTime 52
scalar Scenario.node[89].veinsmobility stopTime 57
scalar Scenario.node[89].veinsmobility minSpeed 1.8642573473975
scalar Scenario.node[89].veinsmobility maxSpeed 10.388951141881
scalar Scenario.node[89].veinsmobility totalDistance 471.14662976084
scalar Scenario.node[89].veinsmobility totalCO2Emission 122.99418075716
scalar Scenario.node[54].appl generatedWSMs 0
scalar Scenario.node[54].appl receivedWSMs 0
scalar Scenario.node[54].appl generatedBSMs 0
scalar Scenario.node[54].appl receivedBSMs 0
scalar Scenario.node[54].appl generatedWSAs 0
scalar Scenario.node[54].appl receivedWSAs 0
scalar Scenario.node[54].nic.phy80211p busyTime 0
scalar Scenario.node[54].nic.mac1609_4 ReceivedUnicastPackets 0
scalar Scenario.node[54].nic.mac1609_4 ReceivedBroadcasts 0
scalar Scenario.node[54].nic.mac1609_4 SentPackets 0
scalar Scenario.node[54].nic.mac1609_4 SentAcknowledgements 0
scalar Scenario.node[54].nic.mac1609_4 RetriesExceeded 0
scalar Scenario.node[54].nic.mac1609_4 SNIRLostPackets 0
scalar Scenario.node[54].nic.mac1609_4 RXTXLostPackets 0
scalar Scenario.node[54].nic.mac1609_4 TotalLostPackets 0
scalar Scenario.node[54].nic.mac1609_4 DroppedPacketsInMac 0
scalar Scenario.node[54].nic.mac1609_4 TooLittleTime 0
scalar Scenario.node[54].nic.mac1609_4 TimesIntoBackoff 0
scalar Scenario.node[54].nic.mac1609_4 SlotsBackoff 0
scalar Scenario.node[54].nic.mac1609_4 NumInternalContention 0
scalar Scenario.node[54].nic.mac1609_4 totalBusyTime 0
scalar Scenario.node[54].nic.mac1609_4 retriesExceeded:count 0
attr source org_car2x_veins_modules_mac_sigRetriesExceeded
scalar Scenario.node[54].nic.mac1609_4 sentAcks:count 0
attr source org_car2x_veins_modules_mac_sigSentAck
scalar Scenario.node[54].nic.mac1609_4 sentPackets:count 0
attr source org_car2x_veins_modules_mac_sigSentPacket
scalar Scenario.node[54].nic.mac1609_4 collisions:count 0
attr source org_car2x_veins_modules_mac_sigCollision
scalar Scenario.node[54].nic.mac1609_4 channelBusy:timeavg 0
attr source org_car2x_veins_modules_mac_sigChannelBusy
scalar Scenario.node[54].veinsmobility startTime 1
scalar Scenario.node[54].veinsmobility totalTime 55
scalar Scenario.node[54].veinsmobility stopTime 57
scalar Scenario.node[54].veinsmobility minSpeed 1.5972831639228
scalar Scenario.node[54].veinsmobility maxSpeed 14.126678444512
scalar Scenario.node[54].veinsmobility totalDistance 661.95129565124
scalar Scenario.node[54].veinsmobility totalCO2Emission 178.12936518653
scalar Scenario.node[70].appl generatedWSMs 0
scalar Scenario.node[70].appl receivedWSMs 0
scalar Scenario.node[70].appl generatedBSMs 0
scalar Scenario.node[70].appl receivedBSMs 0
scalar Scenario.node[70].appl generatedWSAs 0
scalar Scenario.node[70].appl receivedWSAs 0
scalar Scenario.node[70].nic.phy80211p busyTime 0
scalar Scenario.node[70].nic.mac1609_4 ReceivedUnicastPackets 0
scalar Scenario.node[70].nic.mac1609_4 ReceivedBroadcasts 0
scalar Scenario.node[70].nic.mac1609_4 SentPackets 0
scalar Scenario.node[70].nic.mac1609_4 SentAcknowledgements 0
scalar Scenario.node[70].nic.mac1609_4 RetriesExceeded 0
scalar Scenario.node[70].nic.mac1609_4 SNIRLostPackets 0
scalar Scenario.node[70].nic.mac1609_4 RXTXLostPackets 0
scalar Scenario.node[70].nic.mac1609_4 TotalLostPackets 0
scalar Scenario.node[70].nic.mac1609_4 DroppedPacketsInMac 0
scalar Scenario.node[70].nic.mac1609_4 TooLittleTime 0
scalar Scenario.node[70].nic.mac1609_4 TimesIntoBackoff 0
scalar Scenario.node[70].nic.mac1609_4 SlotsBackoff 0
scalar Scenario.node[70].nic.mac1609_4 NumInternalContention 0
scalar Scenario.node[70].nic.mac1609_4 totalBusyTime 0
scalar Scenario.node[70].nic.mac1609_4 retriesExceeded:count 0
attr source org_car2x_veins_modules_mac_sigRetriesExceeded
scalar Scenario.node[70].nic.mac1609_4 sentAcks:count 0
attr source org_car2x_veins_modules_mac_sigSentAck
scalar Scenario.node[70].nic.mac1609_4 sentPackets:count 0
attr source org_car2x_veins_modules_mac_sigSentPacket
scalar Scenario.node[70].nic.mac1609_4 collisions:count 0
attr source org_car2x_veins_modules_mac_sigCollision
scalar Scenario.node[70].nic.mac1609_4 channelBusy:timeavg 0
attr source org_car2x_veins_modules_mac_sigChannelBusy
scalar Scenario.node[70].veinsmobility startTime 1
scalar Scenario.node[70].veinsmobility totalTime 55
scalar Scenario.node[70].veinsmobility stopTime 57
scalar Scenario.node[70].veinsmobility minSpeed 1.3519775079098
scalar Scenario.node[70].veinsmobility maxSpeed 14.563213921426
scalar Scenario.node[70].veinsmobility totalDistance 661.19888579305
scalar Scenario.node[70].veinsmobility totalCO2Emission 182.18556977266
scalar Scenario.node[10].appl generatedWSMs 0
scalar Scenario.node[10].appl receivedWSMs 0
scalar Scenario.node[10].appl generatedBSMs 0
scalar Scenario.node[10].appl receivedBSMs 0
scalar Scenario.node[10].appl generatedWSAs 0
scalar Scenario.node[10].appl receivedWSAs 0
scalar Scenario.node[10].nic.phy80211p busyTime 0
scalar Scenario.node[10].nic.mac1609_4 ReceivedUnicastPackets 0
scalar Scenario.node[10].nic.mac1609_4 ReceivedBroadcasts 0
scalar Scenario.node[10].nic.mac1609_4 SentPackets 0
scalar Scenario.node[10].nic.mac1609_4 SentAcknowledgements 0
scalar Scenario.node[10].nic.mac1609_4 RetriesExceeded 0
scalar Scenario.node[10].nic.mac1609_4 SNIRLostPackets 0
scalar Scenario.node[10].nic.mac1609_4 RXTXLostPackets 0
scalar Scenario.node[10].nic.mac1609_4 TotalLostPackets 0
scalar Scenario.node[10].nic.mac1609_4 DroppedPacketsInMac 0
scalar Scenario.node[10].nic.mac1609_4 TooLittleTime 0
scalar Scenario.node[10].nic.mac1609_4 TimesIntoBackoff 0
scalar Scenario.node[10].nic.mac1609_4 SlotsBackoff 0
scalar Scenario.node[10].nic.mac1609_4 NumInternalContention 0
scalar Scenario.node[10].nic.mac1609_4 totalBusyTime 0
scalar Scenario.node[10].nic.mac1609_4 retriesExceeded:count 0
attr source org_car2x_veins_modules_mac_sigRetriesExceeded
scalar Scenario.node[10].nic.mac1609_4 sentAcks:count 0
attr source org_car2x_veins_modules_mac_sigSentAck
scalar Scenario.node[10].nic.mac1609_4 sentPackets:count 0
attr source org_car2x_veins_modules_mac_sigSentPacket
scalar Scenario.node[10].nic.mac1609_4 collisions:count 0
attr source org_car2x_veins_modules_mac_sigCollision
scalar Scenario.node[10].nic.mac1609_4 channelBusy:timeavg 0
attr source org_car2x_veins_modules_mac_sigChannelBusy
scalar Scenario.node[10].veinsmobility startTime 1
scalar Scenario.node[10].veinsmobility totalTime 57
scalar Scenario.node[10].veinsmobility stopTime 59
scalar Scenario.node[10].veinsmobility minSpeed 0.14119945300837
scalar Scenario.node[10].veinsmobility maxSpeed 15.276534762927
scalar Scenario.node[10].veinsmobility totalDistance 675.09539433463
scalar Scenario.node[10].veinsmobility totalCO2Emission 193.58271437291
scalar Scenario.node[1].appl generatedWSMs 0
scalar Scenario.node[1].appl receivedWSMs 0
scalar Scenario.node[1].appl generatedBSMs 0
scalar Scenario.node[1].appl receivedBSMs 0
scalar Scenario.node[1].appl generatedWSAs 0
scalar Scenario.node[1].appl receivedWSAs 0
scalar Scenario.node[1].nic.phy80211p busyTime 0
scalar Scenario.node[1].nic.mac1609_4 ReceivedUnicastPackets 0
scalar Scenario.node[1].nic.mac1609_4 ReceivedBroadcasts 0
scalar Scenario.node[1].nic.mac1609_4 SentPackets 0
scalar Scenario.node[1].nic.mac1609_4 SentAcknowledgements 0
scalar Scenario.node[1].nic.mac1609_4 RetriesExceeded 0
scalar Scenario.node[1].nic.mac1609_4 SNIRLostPackets 0
scalar Scenario.node[1].nic.mac1609_4 RXTXLostPackets 0
scalar Scenario.node[1].nic.mac1609_4 TotalLostPackets 0
scalar Scenario.node[1].nic.mac1609_4 DroppedPacketsInMac 0
scalar Scenario.node[1].nic.mac1609_4 TooLittleTime 0
scalar Scenario.node[1].nic.mac1609_4 TimesIntoBackoff 0
scalar Scenario.node[1].nic.mac1609_4 SlotsBackoff 0
scalar Scenario.node[1].nic.mac1609_4 NumInternalContention 0
scalar Scenario.node[1].nic.mac1609_4 totalBusyTime 0
scalar Scenario.node[1].nic.mac1609_4 retriesExceeded:count 0
attr source org_car2x_veins_modules_mac_sigRetriesExceeded
scalar Scenario.node[1].nic.mac1609_4 sentAcks:count 0
attr source org_car2x_veins_modules_mac_sigSentAck
scalar Scenario.node[1].nic.mac1609_4 sentPackets:count 0
attr source org_car2x_veins_modules_mac_sigSentPacket
scalar Scenario.node[1].nic.mac1609_4 collisions:count 0
attr source org_car2x_veins_modules_mac_sigCollision
scalar Scenario.node[1].nic.mac1609_4 channelBusy:timeavg 0
attr source org_car2x_veins_modules_mac_sigChannelBusy
scalar Scenario.node[1].veinsmobility startTime 1
scalar Scenario.node[1].veinsmobility totalTime 58
scalar Scenario.node[1].veinsmobility stopTime 60
scalar Scenario.node[1].veinsmobility minSpeed 1.9749580422416
scalar Scenario.node[1].veinsmobility maxSpeed 14.566111380207
scalar Scenario.node[1].veinsmobility totalDistance 676.90643630484
scalar Scenario.node[1].veinsmobility totalCO2Emission 199.59614881717
scalar Scenario.node[35].appl generatedWSMs 0
scalar Scenario.node[35].appl receivedWSMs 0
scalar Scenario.node[35].appl generatedBSMs 0
scalar Scenario.node[35].appl receivedBSMs 0
scalar Scenario.node[35].appl generatedWSAs 0
scalar Scenario.node[35].appl receivedWSAs 0
scalar Scenario.node[35].nic.phy80211p busyTime 0
scalar Scenario.node[35].nic.mac1609_4 ReceivedUnicastPackets 0
scalar Scenario.node[35].nic.mac1609_4 ReceivedBroadcasts 0
scalar Scenario.node[35].nic.mac1609_4 SentPackets 0
scalar Scenario.node[35].nic.mac1609_4 SentAcknowledgements 0
scalar Scenario.node[35].nic.mac1609_4 RetriesExceeded 0
scalar Scenario.node[35].nic.mac1609_4 SNIRLostPackets 0
scalar Scenario.node[35].nic.mac1609_4 RXTXLostPackets 0
scalar Scenario.node[35].nic.mac1609_4 TotalLostPackets 0
scalar Scenario.node[35].nic.mac1609_4 DroppedPacketsInMac 0
scalar Scenario.node[35].nic.mac1609_4 TooLittleTime 0
scalar Scenario.node[35].nic.mac1609_4 TimesIntoBackoff 0
scalar Scenario.node[35].nic.mac1609_4 SlotsBackoff 0
scalar Scenario.node[35].nic.mac1609_4 NumInternalContention 0
scalar Scenario.node[35].nic.mac1609_4 totalBusyTime 0
scalar Scenario.node[35].nic.mac1609_4 retriesExceeded:count 0
attr source org_car2x_veins_modules_mac_sigRetriesExceeded
scalar Scenario.node[35].nic.mac1609_4 sentAcks:count 0
attr source org_car2x_veins_modules_mac_sigSentAck
scalar Scenario.node[35].nic.mac1609_4 sentPackets:count 0
attr source org_car2x_veins_modules_mac_sigSentPacket
scalar Scenario.node[35].nic.mac1609_4 collisions:count 0
attr source org_car2x_veins_modules_mac_sigCollision
scalar Scenario.node[35].nic.mac1609_4 channelBusy:timeavg 0
attr source org_car2x_veins_modules_mac_sigChannelBusy
scalar Scenario.node[35].veinsmobility startTime 1
scalar Scenario.node[35].veinsmobility totalTime 58
scalar Scenario.node[35].veinsmobility stopTime 60
scalar Scenario.node[35].veinsmobility minSpeed 1.5948854350485
scalar Scenario.node[35].veinsmobility maxSpeed 12.855821138318
scalar Scenario.node[35].veinsmobility totalDistance 662.56792799774
scalar Scenario.node[35].veinsmobility totalCO2Emission 156.07632605939
scalar Scenario.node[61].appl generatedWSMs 0
scalar Scenario.node[61].appl receivedWSMs 0
scalar Scenario.node[61].appl generatedBSMs 0
scalar Scenario.node[61].appl receivedBSMs 0
scalar Scenario.node[61].appl generatedWSAs 0
scalar Scenario.node[61].appl receivedWSAs 0
scalar Scenario.node[61].nic.phy80211p busyTime 0
scalar Scenario.node[61].nic.mac1609_4 ReceivedUnicastPackets 0
scalar Scenario.node[61].nic.mac1609_4 ReceivedBroadcasts 0
scalar Scenario.node[61].nic.mac1609_4 SentPackets 0
scalar Scenario.node[61].nic.mac1609_4 SentAcknowledgements 0
scalar Scenario.node[61].nic.mac1609_4 RetriesExceeded 0
scalar Scenario.node[61].nic.mac1609_4 SNIRLostPackets 0
scalar Scenario.node[61].nic.mac1609_4 RXTXLostPackets 0
scalar Scenario.node[61].nic.mac1609_4 TotalLostPackets 0
scalar Scenario.node[61].nic.mac1609_4 DroppedPacketsInMac 0
scalar Scenario.node[61].nic.mac1609_4 TooLittleTime 0
scalar Scenario.node[61].nic.mac1609_4 TimesIntoBackoff 0
scalar Scenario.node[61].nic.mac1609_4 SlotsBackoff 0
scalar Scenario.node[61].nic.mac1609_4 NumInternalContention 0
scalar Scenario.node[61].nic.mac1609_4 totalBusyTime 0
scalar Scenario.node[61].nic.mac1609_4 retriesExceeded:count 0
attr source org_car2x_veins_modules_mac_sigRetriesExceeded
scalar Scenario.node[61].nic.mac1609_4 sentAcks:count 0
attr source org_car2x_veins_modules_mac_sigSentAck
scalar Scenario.node[61].nic.mac1609_4 sentPackets:count 0
attr source org_car2x_veins_modules_mac_sigSentPacket
scalar Scenario.node[61].nic.mac1609_4 collisions:count 0
attr source org_car2x_veins_modules_mac_sigCollision
scalar Scenario.node[61].nic.mac1609_4 channelBusy:timeavg 0
attr source org_car2x_veins_modules_mac_sigChannelBusy
scalar Scenario.node[61].veinsmobility startTime 1
scalar Scenario.node[61].veinsmobility totalTime 59
scalar Scenario.node[61].veinsmobility stopTime 61
scalar Scenario.node[61].veinsmobility minSpeed 0.76385754661916
scalar Scenario.node[61].veinsmobility maxSpeed 12.63069736078
scalar Scenario.node[61].veinsmobility totalDistance 576.15543467584
scalar Scenario.node[61].veinsmobility totalCO2Emission 177.82823953305
scalar Scenario.node[75].appl generatedWSMs 0
scalar Scenario.node[75].appl receivedWSMs 0
scalar Scenario.node[75].appl generatedBSMs 0
scalar Scenario.node[75].appl receivedBSMs 15
scalar Scenario.node[75].appl generatedWSAs 0
scalar Scenario.node[75].appl receivedWSAs 0
scalar Scenario.node[75].nic.phy80211p busyTime 2.9466666666667e-05
scalar Scenario.node[75].nic.mac1609_4 ReceivedUnicastPackets 0
scalar Scenario.node[75].nic.mac1609_4 ReceivedBroadcasts 15
scalar Scenario.node[75].nic.mac1609_4 SentPackets 0
scalar Scenario.node[75].nic.mac1609_4 SentAcknowledgements 0
scalar Scenario.node[75].nic.mac1609_4 RetriesExceeded 0
scalar Scenario.node[75].nic.mac1609_4 SNIRLostPackets 2
scalar Scenario.node[75].nic.mac1609_4 RXTXLostPackets 0
scalar Scenario.node[75].nic.mac1609_4 TotalLostPackets 2
scalar Scenario.node[75].nic.mac1609_4 DroppedPacketsInMac 0
scalar Scenario.node[75].nic.mac1609_4 TooLittleTime 0
scalar Scenario.node[75].nic.mac1609_4 TimesIntoBackoff 0
scalar Scenario.node[75].nic.mac1609_4 SlotsBackoff 0
scalar Scenario.node[75].nic.mac1609_4 NumInternalContention 0
scalar Scenario.node[75].nic.mac1609_4 totalBusyTime 0.001768
scalar Scenario.node[75].nic.mac1609_4 retriesExceeded:count 0
attr source org_car2x_veins_modules_mac_sigRetriesExceeded
scalar Scenario.node[75].nic.mac1609_4 sentAcks:count 0
attr source org_car2x_veins_modules_mac_sigSentAck
scalar Scenario.node[75].nic.mac1609_4 sentPackets:count 0
attr source org_car2x_veins_modules_mac_sigSentPacket
scalar Scenario.node[75].nic.mac1609_4 collisions:count 0
attr source org_car2x_veins_modules_mac_sigCollision
scalar Scenario.node[75].nic.mac1609_4 channelBusy:timeavg 2.9466666666667e-05
attr source org_car2x_veins_modules_mac_sigChannelBusy
scalar Scenario.node[75].veinsmobility startTime 1
scalar Scenario.node[75].veinsmobility totalTime 59
scalar Scenario.node[75].veinsmobility stopTime 61
scalar Scenario.node[75].veinsmobility minSpeed 0.0003585720187767
scalar Scenario.node[75].veinsmobility maxSpeed 14.254962783379
scalar Scenario.node[75].veinsmobility totalDistance 471.82191981057
scalar Scenario.node[75].veinsmobility totalCO2Emission 215.57977689536
scalar Scenario.node[93].appl generatedWSMs 0
scalar Scenario.node[93].appl receivedWSMs 0
scalar Scenario.node[93].appl generatedBSMs 0
scalar Scenario.node[93].appl receivedBSMs 5
scalar Scenario.node[93].appl generatedWSAs 0
scalar Scenario.node[93].appl receivedWSAs 0
scalar Scenario.node[93].nic.phy80211p busyTime 8.9655172413793e-06
scalar Scenario.node[93].nic.mac1609_4 ReceivedUnicastPackets 0
scalar Scenario.node[93].nic.mac1609_4 ReceivedBroadcasts 5
scalar Scenario.node[93].nic.mac1609_4 SentPackets 0
scalar Scenario.node[93].nic.mac1609_4 SentAcknowledgements 0
scalar Scenario.node[93].nic.mac1609_4 RetriesExceeded 0
scalar Scenario.node[93].nic.mac1609_4 SNIRLostPackets 0
scalar Scenario.node[93].nic.mac1609_4 RXTXLostPackets 0
scalar Scenario.node[93].nic.mac1609_4 TotalLostPackets 0
scalar Scenario.node[93].nic.mac1609_4 DroppedPacketsInMac 0
scalar Scenario.node[93].nic.mac1609_4 TooLittleTime 0
scalar Scenario.node[93].nic.mac1609_4 TimesIntoBackoff 0
scalar Scenario.node[93].nic.mac1609_4 SlotsBackoff 0
scalar Scenario.node[93].nic.mac1609_4 NumInternalContention 0
scalar Scenario.node[93].nic.mac1609_4 totalBusyTime 0.00052
scalar Scenario.node[93].nic.mac1609_4 retriesExceeded:count 0
attr source org_car2x_veins_modules_mac_sigRetriesExceeded
scalar Scenario.node[93].nic.mac1609_4 sentAcks:count 0
attr source org_car2x_veins_modules_mac_sigSentAck
scalar Scenario.node[93].nic.mac1609_4 sentPackets:count 0
attr source org_car2x_veins_modules_mac_sigSentPacket
scalar Scenario.node[93].nic.mac1609_4 collisions:count 0
attr source org_car2x_veins_modules_mac_sigCollision
scalar Scenario.node[93].nic.mac1609_4 channelBusy:timeavg 8.9655172413793e-06
attr source org_car2x_veins_modules_mac_sigChannelBusy
scalar Scenario.node[93].veinsmobility startTime 4
scalar Scenario.node[93].veinsmobility totalTime 57
scalar Scenario.node[93].veinsmobility stopTime 62
scalar Scenario.node[93].veinsmobility minSpeed 1.6423295211978
scalar Scenario.node[93].veinsmobility maxSpeed 9.4866756931019
scalar Scenario.node[93].veinsmobility totalDistance 477.55995589127
scalar Scenario.node[93].veinsmobility totalCO2Emission 124.30051567016
scalar Scenario.node[50].appl generatedWSMs 0
scalar Scenario.node[50].appl receivedWSMs 0
scalar Scenario.node[50].appl generatedBSMs 0
scalar Scenario.node[50].appl receivedBSMs 0
scalar Scenario.node[50].appl generatedWSAs 0
scalar Scenario.node[50].appl receivedWSAs 0
scalar Scenario.node[50].nic.phy80211p busyTime 0
scalar Scenario.node[50].nic.mac1609_4 ReceivedUnicastPackets 0
scalar Scenario.node[50].nic.mac1609_4 ReceivedBroadcasts 0
scalar Scenario.node[50].nic.mac1609_4 SentPackets 0
scalar Scenario.node[50].nic.mac1609_4 SentAcknowledgements 0
scalar Scenario.node[50].nic.mac1609_4 RetriesExceeded 0
scalar Scenario.node[50].nic.mac1609_4 SNIRLostPackets 0
scalar Scenario.node[50].nic.mac1609_4 RXTXLostPackets 0
scalar Scenario.node[50].nic.mac1609_4 TotalLostPackets 0
scalar Scenario.node[50].nic.mac1609_4 DroppedPacketsInMac 0
scalar Scenario.node[50].nic.mac1609_4 TooLittleTime 0
scalar Scenario.node[50].nic.mac1609_4 TimesIntoBackoff 0
scalar Scenario.node[50].nic.mac1609_4 SlotsBackoff 0
scalar Scenario.node[50].nic.mac1609_4 NumInternalContention 0
scalar Scenario.node[50].nic.mac1609_4 totalBusyTime 0
scalar Scenario.node[50].nic.mac1609_4 retriesExceeded:count 0
attr source org_car2x_veins_modules_mac_sigRetriesExceeded
scalar Scenario.node[50].nic.mac1609_4 sentAcks:count 0
attr source org_car2x_veins_modules_mac_sigSentAck
scalar Scenario.node[50].nic.mac1609_4 sentPackets:count 0
[...]
attr source org_car2x_veins_modules_mac_sigSentAck
scalar Scenario.node[94].nic.mac1609_4 sentPackets:count 0
attr source org_car2x_veins_modules_mac_sigSentPacket
scalar Scenario.node[94].nic.mac1609_4 collisions:count 0
attr source org_car2x_veins_modules_mac_sigCollision
scalar Scenario.node[94].nic.mac1609_4 channelBusy:timeavg 3.7477477477477e-06
attr source org_car2x_veins_modules_mac_sigChannelBusy
scalar Scenario.node[94].veinsmobility startTime 4
scalar Scenario.node[94].veinsmobility totalTime 110
scalar Scenario.node[94].veinsmobility stopTime 115
scalar Scenario.node[94].veinsmobility minSpeed 1.7079112888547
scalar Scenario.node[94].veinsmobility maxSpeed 13.387511846892
scalar Scenario.node[94].veinsmobility totalDistance 1263.4490699145
scalar Scenario.node[94].veinsmobility totalCO2Emission 339.79403437801
scalar Scenario.node[24].appl generatedWSMs 0
scalar Scenario.node[24].appl receivedWSMs 0
scalar Scenario.node[24].appl generatedBSMs 0
scalar Scenario.node[24].appl receivedBSMs 81
scalar Scenario.node[24].appl generatedWSAs 0
scalar Scenario.node[24].appl receivedWSAs 0
scalar Scenario.node[24].nic.phy80211p busyTime 7.9793103448276e-05
scalar Scenario.node[24].nic.mac1609_4 ReceivedUnicastPackets 0
scalar Scenario.node[24].nic.mac1609_4 ReceivedBroadcasts 81
scalar Scenario.node[24].nic.mac1609_4 SentPackets 0
scalar Scenario.node[24].nic.mac1609_4 SentAcknowledgements 0
scalar Scenario.node[24].nic.mac1609_4 RetriesExceeded 0
scalar Scenario.node[24].nic.mac1609_4 SNIRLostPackets 8
scalar Scenario.node[24].nic.mac1609_4 RXTXLostPackets 0
scalar Scenario.node[24].nic.mac1609_4 TotalLostPackets 8
scalar Scenario.node[24].nic.mac1609_4 DroppedPacketsInMac 0
scalar Scenario.node[24].nic.mac1609_4 TooLittleTime 0
scalar Scenario.node[24].nic.mac1609_4 TimesIntoBackoff 0
scalar Scenario.node[24].nic.mac1609_4 SlotsBackoff 0
scalar Scenario.node[24].nic.mac1609_4 NumInternalContention 0
scalar Scenario.node[24].nic.mac1609_4 totalBusyTime 0.009256
scalar Scenario.node[24].nic.mac1609_4 retriesExceeded:count 0
attr source org_car2x_veins_modules_mac_sigRetriesExceeded
scalar Scenario.node[24].nic.mac1609_4 sentAcks:count 0
attr source org_car2x_veins_modules_mac_sigSentAck
scalar Scenario.node[24].nic.mac1609_4 sentPackets:count 0
attr source org_car2x_veins_modules_mac_sigSentPacket
scalar Scenario.node[24].nic.mac1609_4 collisions:count 0
attr source org_car2x_veins_modules_mac_sigCollision
scalar Scenario.node[24].nic.mac1609_4 channelBusy:timeavg 7.9793103448276e-05
attr source org_car2x_veins_modules_mac_sigChannelBusy
scalar Scenario.node[24].veinsmobility startTime 1
scalar Scenario.node[24].veinsmobility totalTime 115
scalar Scenario.node[24].veinsmobility stopTime 117
scalar Scenario.node[24].veinsmobility minSpeed 0.00076231994605863
scalar Scenario.node[24].veinsmobility maxSpeed 11.710283865259
scalar Scenario.node[24].veinsmobility totalDistance 1072.1498272633
scalar Scenario.node[24].veinsmobility totalCO2Emission 316.89818200708
scalar Scenario.node[59].appl generatedWSMs 0
scalar Scenario.node[59].appl receivedWSMs 0
scalar Scenario.node[59].appl generatedBSMs 0
scalar Scenario.node[59].appl receivedBSMs 12
scalar Scenario.node[59].appl generatedWSAs 0
scalar Scenario.node[59].appl receivedWSAs 0
scalar Scenario.node[59].nic.phy80211p busyTime 1.5864406779661e-05
scalar Scenario.node[59].nic.mac1609_4 ReceivedUnicastPackets 0
scalar Scenario.node[59].nic.mac1609_4 ReceivedBroadcasts 12
scalar Scenario.node[59].nic.mac1609_4 SentPackets 0
scalar Scenario.node[59].nic.mac1609_4 SentAcknowledgements 0
scalar Scenario.node[59].nic.mac1609_4 RetriesExceeded 0
scalar Scenario.node[59].nic.mac1609_4 SNIRLostPackets 6
scalar Scenario.node[59].nic.mac1609_4 RXTXLostPackets 0
scalar Scenario.node[59].nic.mac1609_4 TotalLostPackets 6
scalar Scenario.node[59].nic.mac1609_4 DroppedPacketsInMac 0
scalar Scenario.node[59].nic.mac1609_4 TooLittleTime 0
scalar Scenario.node[59].nic.mac1609_4 TimesIntoBackoff 0
scalar Scenario.node[59].nic.mac1609_4 SlotsBackoff 0
scalar Scenario.node[59].nic.mac1609_4 NumInternalContention 0
scalar Scenario.node[59].nic.mac1609_4 totalBusyTime 0.001872
scalar Scenario.node[59].nic.mac1609_4 retriesExceeded:count 0
attr source org_car2x_veins_modules_mac_sigRetriesExceeded
scalar Scenario.node[59].nic.mac1609_4 sentAcks:count 0
attr source org_car2x_veins_modules_mac_sigSentAck
scalar Scenario.node[59].nic.mac1609_4 sentPackets:count 0
attr source org_car2x_veins_modules_mac_sigSentPacket
scalar Scenario.node[59].nic.mac1609_4 collisions:count 0
attr source org_car2x_veins_modules_mac_sigCollision
scalar Scenario.node[59].nic.mac1609_4 channelBusy:timeavg 1.5864406779661e-05
attr source org_car2x_veins_modules_mac_sigChannelBusy
scalar Scenario.node[59].veinsmobility startTime 1
scalar Scenario.node[59].veinsmobility totalTime 117
scalar Scenario.node[59].veinsmobility stopTime 119
scalar Scenario.node[59].veinsmobility minSpeed 2.211610493972
scalar Scenario.node[59].veinsmobility maxSpeed 10.625204489907
scalar Scenario.node[59].veinsmobility totalDistance 1067.839642744
scalar Scenario.node[59].veinsmobility totalCO2Emission 299.01825237195
scalar Scenario.node[84].appl generatedWSMs 0
scalar Scenario.node[84].appl receivedWSMs 0
scalar Scenario.node[84].appl generatedBSMs 0
scalar Scenario.node[84].appl receivedBSMs 114
scalar Scenario.node[84].appl generatedWSAs 0
scalar Scenario.node[84].appl receivedWSAs 0
scalar Scenario.node[84].nic.phy80211p busyTime 9.7344e-05
scalar Scenario.node[84].nic.mac1609_4 ReceivedUnicastPackets 0
scalar Scenario.node[84].nic.mac1609_4 ReceivedBroadcasts 114
scalar Scenario.node[84].nic.mac1609_4 SentPackets 0
scalar Scenario.node[84].nic.mac1609_4 SentAcknowledgements 0
scalar Scenario.node[84].nic.mac1609_4 RetriesExceeded 0
scalar Scenario.node[84].nic.mac1609_4 SNIRLostPackets 3
scalar Scenario.node[84].nic.mac1609_4 RXTXLostPackets 0
scalar Scenario.node[84].nic.mac1609_4 TotalLostPackets 3
scalar Scenario.node[84].nic.mac1609_4 DroppedPacketsInMac 0
scalar Scenario.node[84].nic.mac1609_4 TooLittleTime 0
scalar Scenario.node[84].nic.mac1609_4 TimesIntoBackoff 0
scalar Scenario.node[84].nic.mac1609_4 SlotsBackoff 0
scalar Scenario.node[84].nic.mac1609_4 NumInternalContention 0
scalar Scenario.node[84].nic.mac1609_4 totalBusyTime 0.012168
scalar Scenario.node[84].nic.mac1609_4 retriesExceeded:count 0
attr source org_car2x_veins_modules_mac_sigRetriesExceeded
scalar Scenario.node[84].nic.mac1609_4 sentAcks:count 0
attr source org_car2x_veins_modules_mac_sigSentAck
scalar Scenario.node[84].nic.mac1609_4 sentPackets:count 0
attr source org_car2x_veins_modules_mac_sigSentPacket
scalar Scenario.node[84].nic.mac1609_4 collisions:count 0
attr source org_car2x_veins_modules_mac_sigCollision
scalar Scenario.node[84].nic.mac1609_4 channelBusy:timeavg 9.7344e-05
attr source org_car2x_veins_modules_mac_sigChannelBusy
scalar Scenario.node[84].veinsmobility startTime 1
scalar Scenario.node[84].veinsmobility totalTime 124
scalar Scenario.node[84].veinsmobility stopTime 126
scalar Scenario.node[84].veinsmobility minSpeed 0.00043160749014711
scalar Scenario.node[84].veinsmobility maxSpeed 15.571670466244
scalar Scenario.node[84].veinsmobility totalDistance 1368.1449745973
scalar Scenario.node[84].veinsmobility totalCO2Emission 471.88551655348
scalar Scenario.node[79].appl generatedWSMs 0
scalar Scenario.node[79].appl receivedWSMs 0
scalar Scenario.node[79].appl generatedBSMs 0
scalar Scenario.node[79].appl receivedBSMs 11
scalar Scenario.node[79].appl generatedWSAs 0
scalar Scenario.node[79].appl receivedWSAs 0
scalar Scenario.node[79].nic.phy80211p busyTime 1.5317829457364e-05
scalar Scenario.node[79].nic.mac1609_4 ReceivedUnicastPackets 0
scalar Scenario.node[79].nic.mac1609_4 ReceivedBroadcasts 11
scalar Scenario.node[79].nic.mac1609_4 SentPackets 0
scalar Scenario.node[79].nic.mac1609_4 SentAcknowledgements 0
scalar Scenario.node[79].nic.mac1609_4 RetriesExceeded 0
scalar Scenario.node[79].nic.mac1609_4 SNIRLostPackets 8
scalar Scenario.node[79].nic.mac1609_4 RXTXLostPackets 0
scalar Scenario.node[79].nic.mac1609_4 TotalLostPackets 8
scalar Scenario.node[79].nic.mac1609_4 DroppedPacketsInMac 0
scalar Scenario.node[79].nic.mac1609_4 TooLittleTime 0
scalar Scenario.node[79].nic.mac1609_4 TimesIntoBackoff 0
scalar Scenario.node[79].nic.mac1609_4 SlotsBackoff 0
scalar Scenario.node[79].nic.mac1609_4 NumInternalContention 0
scalar Scenario.node[79].nic.mac1609_4 totalBusyTime 0.001976
scalar Scenario.node[79].nic.mac1609_4 retriesExceeded:count 0
attr source org_car2x_veins_modules_mac_sigRetriesExceeded
scalar Scenario.node[79].nic.mac1609_4 sentAcks:count 0
attr source org_car2x_veins_modules_mac_sigSentAck
scalar Scenario.node[79].nic.mac1609_4 sentPackets:count 0
attr source org_car2x_veins_modules_mac_sigSentPacket
scalar Scenario.node[79].nic.mac1609_4 collisions:count 0
attr source org_car2x_veins_modules_mac_sigCollision
scalar Scenario.node[79].nic.mac1609_4 channelBusy:timeavg 1.5317829457364e-05
attr source org_car2x_veins_modules_mac_sigChannelBusy
scalar Scenario.node[79].veinsmobility startTime 1
scalar Scenario.node[79].veinsmobility totalTime 128
scalar Scenario.node[79].veinsmobility stopTime 130
scalar Scenario.node[79].veinsmobility minSpeed 0.22321481270635
scalar Scenario.node[79].veinsmobility maxSpeed 17.574564729223
scalar Scenario.node[79].veinsmobility totalDistance 1568.7764523562
scalar Scenario.node[79].veinsmobility totalCO2Emission 510.74878443657
scalar Scenario.fugitivo[99].appl generatedWSMs 0
scalar Scenario.fugitivo[99].appl receivedWSMs 0
scalar Scenario.fugitivo[99].appl generatedBSMs 132
scalar Scenario.fugitivo[99].appl receivedBSMs 0
scalar Scenario.fugitivo[99].appl generatedWSAs 0
scalar Scenario.fugitivo[99].appl receivedWSAs 0
scalar Scenario.fugitivo[99].nic.phy80211p busyTime 0
scalar Scenario.fugitivo[99].nic.mac1609_4 ReceivedUnicastPackets 0
scalar Scenario.fugitivo[99].nic.mac1609_4 ReceivedBroadcasts 0
scalar Scenario.fugitivo[99].nic.mac1609_4 SentPackets 132
scalar Scenario.fugitivo[99].nic.mac1609_4 SentAcknowledgements 0
scalar Scenario.fugitivo[99].nic.mac1609_4 RetriesExceeded 0
scalar Scenario.fugitivo[99].nic.mac1609_4 SNIRLostPackets 0
scalar Scenario.fugitivo[99].nic.mac1609_4 RXTXLostPackets 0
scalar Scenario.fugitivo[99].nic.mac1609_4 TotalLostPackets 0
scalar Scenario.fugitivo[99].nic.mac1609_4 DroppedPacketsInMac 0
scalar Scenario.fugitivo[99].nic.mac1609_4 TooLittleTime 0
scalar Scenario.fugitivo[99].nic.mac1609_4 TimesIntoBackoff 132
scalar Scenario.fugitivo[99].nic.mac1609_4 SlotsBackoff 210
scalar Scenario.fugitivo[99].nic.mac1609_4 NumInternalContention 0
scalar Scenario.fugitivo[99].nic.mac1609_4 totalBusyTime 0.01386
scalar Scenario.fugitivo[99].nic.mac1609_4 retriesExceeded:count 0
attr source org_car2x_veins_modules_mac_sigRetriesExceeded
scalar Scenario.fugitivo[99].nic.mac1609_4 sentAcks:count 0
attr source org_car2x_veins_modules_mac_sigSentAck
scalar Scenario.fugitivo[99].nic.mac1609_4 sentPackets:count 132
attr source org_car2x_veins_modules_mac_sigSentPacket
scalar Scenario.fugitivo[99].nic.mac1609_4 collisions:count 0
attr source org_car2x_veins_modules_mac_sigCollision
scalar Scenario.fugitivo[99].nic.mac1609_4 channelBusy:timeavg 0.000105
attr source org_car2x_veins_modules_mac_sigChannelBusy
scalar Scenario.fugitivo[99].veinsmobility startTime 5
scalar Scenario.fugitivo[99].veinsmobility totalTime 131
scalar Scenario.fugitivo[99].veinsmobility stopTime 137
scalar Scenario.fugitivo[99].veinsmobility minSpeed 0.0090794015451922
scalar Scenario.fugitivo[99].veinsmobility maxSpeed 15.511545805221
scalar Scenario.fugitivo[99].veinsmobility totalDistance 1378.6580137236
scalar Scenario.fugitivo[99].veinsmobility totalCO2Emission 460.09832133196
scalar Scenario.node[3].appl generatedWSMs 0
scalar Scenario.node[3].appl receivedWSMs 0
scalar Scenario.node[3].appl generatedBSMs 0
scalar Scenario.node[3].appl receivedBSMs 26
scalar Scenario.node[3].appl generatedWSAs 0
scalar Scenario.node[3].appl receivedWSAs 0
scalar Scenario.node[3].nic.phy80211p busyTime 3.5913669064748e-05
scalar Scenario.node[3].nic.mac1609_4 ReceivedUnicastPackets 0
scalar Scenario.node[3].nic.mac1609_4 ReceivedBroadcasts 26
scalar Scenario.node[3].nic.mac1609_4 SentPackets 0
scalar Scenario.node[3].nic.mac1609_4 SentAcknowledgements 0
scalar Scenario.node[3].nic.mac1609_4 RetriesExceeded 0
scalar Scenario.node[3].nic.mac1609_4 SNIRLostPackets 22
scalar Scenario.node[3].nic.mac1609_4 RXTXLostPackets 0
scalar Scenario.node[3].nic.mac1609_4 TotalLostPackets 22
scalar Scenario.node[3].nic.mac1609_4 DroppedPacketsInMac 0
scalar Scenario.node[3].nic.mac1609_4 TooLittleTime 0
scalar Scenario.node[3].nic.mac1609_4 TimesIntoBackoff 0
scalar Scenario.node[3].nic.mac1609_4 SlotsBackoff 0
scalar Scenario.node[3].nic.mac1609_4 NumInternalContention 0
scalar Scenario.node[3].nic.mac1609_4 totalBusyTime 0.004992
scalar Scenario.node[3].nic.mac1609_4 retriesExceeded:count 0
attr source org_car2x_veins_modules_mac_sigRetriesExceeded
scalar Scenario.node[3].nic.mac1609_4 sentAcks:count 0
attr source org_car2x_veins_modules_mac_sigSentAck
scalar Scenario.node[3].nic.mac1609_4 sentPackets:count 0
attr source org_car2x_veins_modules_mac_sigSentPacket
scalar Scenario.node[3].nic.mac1609_4 collisions:count 0
attr source org_car2x_veins_modules_mac_sigCollision
scalar Scenario.node[3].nic.mac1609_4 channelBusy:timeavg 3.5913669064748e-05
attr source org_car2x_veins_modules_mac_sigChannelBusy
scalar Scenario.node[3].veinsmobility startTime 1
scalar Scenario.node[3].veinsmobility totalTime 138
scalar Scenario.node[3].veinsmobility stopTime 140
scalar Scenario.node[3].veinsmobility minSpeed 2.208746208949
scalar Scenario.node[3].veinsmobility maxSpeed 13.12080326238
scalar Scenario.node[3].veinsmobility totalDistance 1470.07410192
scalar Scenario.node[3].veinsmobility totalCO2Emission 407.13202007373
scalar Scenario.node[34].appl generatedWSMs 0
scalar Scenario.node[34].appl receivedWSMs 0
scalar Scenario.node[34].appl generatedBSMs 0
scalar Scenario.node[34].appl receivedBSMs 10
scalar Scenario.node[34].appl generatedWSAs 0
scalar Scenario.node[34].appl receivedWSAs 0
scalar Scenario.node[34].nic.phy80211p busyTime 1.1636363636364e-05
scalar Scenario.node[34].nic.mac1609_4 ReceivedUnicastPackets 0
scalar Scenario.node[34].nic.mac1609_4 ReceivedBroadcasts 10
scalar Scenario.node[34].nic.mac1609_4 SentPackets 0
scalar Scenario.node[34].nic.mac1609_4 SentAcknowledgements 0
scalar Scenario.node[34].nic.mac1609_4 RetriesExceeded 0
scalar Scenario.node[34].nic.mac1609_4 SNIRLostPackets 6
scalar Scenario.node[34].nic.mac1609_4 RXTXLostPackets 0
scalar Scenario.node[34].nic.mac1609_4 TotalLostPackets 6
scalar Scenario.node[34].nic.mac1609_4 DroppedPacketsInMac 0
scalar Scenario.node[34].nic.mac1609_4 TooLittleTime 0
scalar Scenario.node[34].nic.mac1609_4 TimesIntoBackoff 0
scalar Scenario.node[34].nic.mac1609_4 SlotsBackoff 0
scalar Scenario.node[34].nic.mac1609_4 NumInternalContention 0
scalar Scenario.node[34].nic.mac1609_4 totalBusyTime 0.001664
scalar Scenario.node[34].nic.mac1609_4 retriesExceeded:count 0
attr source org_car2x_veins_modules_mac_sigRetriesExceeded
scalar Scenario.node[34].nic.mac1609_4 sentAcks:count 0
attr source org_car2x_veins_modules_mac_sigSentAck
scalar Scenario.node[34].nic.mac1609_4 sentPackets:count 0
attr source org_car2x_veins_modules_mac_sigSentPacket
scalar Scenario.node[34].nic.mac1609_4 collisions:count 0
attr source org_car2x_veins_modules_mac_sigCollision
scalar Scenario.node[34].nic.mac1609_4 channelBusy:timeavg 1.1636363636364e-05
attr source org_car2x_veins_modules_mac_sigChannelBusy
scalar Scenario.node[34].veinsmobility startTime 1
scalar Scenario.node[34].veinsmobility totalTime 142
scalar Scenario.node[34].veinsmobility stopTime 144
scalar Scenario.node[34].veinsmobility minSpeed 0.013309371404044
scalar Scenario.node[34].veinsmobility maxSpeed 12.621061698027
scalar Scenario.node[34].veinsmobility totalDistance 1485.1745912186
scalar Scenario.node[34].veinsmobility totalCO2Emission 383.17123675627
scalar Scenario.node[39].appl generatedWSMs 0
scalar Scenario.node[39].appl receivedWSMs 0
scalar Scenario.node[39].appl generatedBSMs 0
scalar Scenario.node[39].appl receivedBSMs 26
scalar Scenario.node[39].appl generatedWSAs 0
scalar Scenario.node[39].appl receivedWSAs 0
scalar Scenario.node[39].nic.phy80211p busyTime 2.2e-05
scalar Scenario.node[39].nic.mac1609_4 ReceivedUnicastPackets 0
scalar Scenario.node[39].nic.mac1609_4 ReceivedBroadcasts 26
scalar Scenario.node[39].nic.mac1609_4 SentPackets 0
scalar Scenario.node[39].nic.mac1609_4 SentAcknowledgements 0
scalar Scenario.node[39].nic.mac1609_4 RetriesExceeded 0
scalar Scenario.node[39].nic.mac1609_4 SNIRLostPackets 7
scalar Scenario.node[39].nic.mac1609_4 RXTXLostPackets 0
scalar Scenario.node[39].nic.mac1609_4 TotalLostPackets 7
scalar Scenario.node[39].nic.mac1609_4 DroppedPacketsInMac 0
scalar Scenario.node[39].nic.mac1609_4 TooLittleTime 0
scalar Scenario.node[39].nic.mac1609_4 TimesIntoBackoff 0
scalar Scenario.node[39].nic.mac1609_4 SlotsBackoff 0
scalar Scenario.node[39].nic.mac1609_4 NumInternalContention 0
scalar Scenario.node[39].nic.mac1609_4 totalBusyTime 0.003432
scalar Scenario.node[39].nic.mac1609_4 retriesExceeded:count 0
attr source org_car2x_veins_modules_mac_sigRetriesExceeded
scalar Scenario.node[39].nic.mac1609_4 sentAcks:count 0
attr source org_car2x_veins_modules_mac_sigSentAck
scalar Scenario.node[39].nic.mac1609_4 sentPackets:count 0
attr source org_car2x_veins_modules_mac_sigSentPacket
scalar Scenario.node[39].nic.mac1609_4 collisions:count 0
attr source org_car2x_veins_modules_mac_sigCollision
scalar Scenario.node[39].nic.mac1609_4 channelBusy:timeavg 2.2e-05
attr source org_car2x_veins_modules_mac_sigChannelBusy
scalar Scenario.node[39].veinsmobility startTime 1
scalar Scenario.node[39].veinsmobility totalTime 155
scalar Scenario.node[39].veinsmobility stopTime 157
scalar Scenario.node[39].veinsmobility minSpeed 1.4993388696341
scalar Scenario.node[39].veinsmobility maxSpeed 10.378931267378
scalar Scenario.node[39].veinsmobility totalDistance 1471.2656124775
scalar Scenario.node[39].veinsmobility totalCO2Emission 315.12989744624
scalar Scenario.manager roiArea 0
scalar Scenario.rsu[0].appl generatedWSMs 0
scalar Scenario.rsu[0].appl receivedWSMs 0
scalar Scenario.rsu[0].appl generatedBSMs 200
scalar Scenario.rsu[0].appl receivedBSMs 0
scalar Scenario.rsu[0].appl generatedWSAs 0
scalar Scenario.rsu[0].appl receivedWSAs 0
scalar Scenario.rsu[0].nic.phy80211p busyTime 0
scalar Scenario.rsu[0].nic.mac1609_4 ReceivedUnicastPackets 0
scalar Scenario.rsu[0].nic.mac1609_4 ReceivedBroadcasts 0
scalar Scenario.rsu[0].nic.mac1609_4 SentPackets 200
scalar Scenario.rsu[0].nic.mac1609_4 SentAcknowledgements 0
scalar Scenario.rsu[0].nic.mac1609_4 RetriesExceeded 0
scalar Scenario.rsu[0].nic.mac1609_4 SNIRLostPackets 0
scalar Scenario.rsu[0].nic.mac1609_4 RXTXLostPackets 0
scalar Scenario.rsu[0].nic.mac1609_4 TotalLostPackets 0
scalar Scenario.rsu[0].nic.mac1609_4 DroppedPacketsInMac 0
scalar Scenario.rsu[0].nic.mac1609_4 TooLittleTime 0
scalar Scenario.rsu[0].nic.mac1609_4 TimesIntoBackoff 200
scalar Scenario.rsu[0].nic.mac1609_4 SlotsBackoff 289
scalar Scenario.rsu[0].nic.mac1609_4 NumInternalContention 0
scalar Scenario.rsu[0].nic.mac1609_4 totalBusyTime 0.021
scalar Scenario.rsu[0].nic.mac1609_4 retriesExceeded:count 0
attr source org_car2x_veins_modules_mac_sigRetriesExceeded
scalar Scenario.rsu[0].nic.mac1609_4 sentAcks:count 0
attr source org_car2x_veins_modules_mac_sigSentAck
scalar Scenario.rsu[0].nic.mac1609_4 sentPackets:count 200
attr source org_car2x_veins_modules_mac_sigSentPacket
scalar Scenario.rsu[0].nic.mac1609_4 collisions:count 0
attr source org_car2x_veins_modules_mac_sigCollision
scalar Scenario.rsu[0].nic.mac1609_4 channelBusy:timeavg 0.000105
attr source org_car2x_veins_modules_mac_sigChannelBusy

