version 2
run General-0-20250607-01:51:00-9886
attr configname General
attr datetime 20250607-01:51:00
attr experiment General
attr inifile omnetpp.ini
attr iterationvars ""
attr iterationvarsf ""
attr measurement ""
attr network Scenario
attr processid 9886
attr repetition 0
attr replication #0
attr resultdir results
attr runnumber 0
attr seedset 0
param *.playgroundSizeX 1000m
param *.playgroundSizeY 1000m
param *.playgroundSizeZ 50m
param *.manager.launchConfig "xmldoc(\"../../../sumo_scenarios/SUMO-Manhattan-1km_x_1km/100_0.launchd.xml\")"
param *.obstacles.obstacles "xmldoc(\"config.xml\", \"//AnalogueModel[@type='SimpleObstacleShadowing']/obstacles\")"
param *.manager.typename "\"siege.ScenarioManager\""
param *.connectionManager.sendDirect true
param *.connectionManager.maxInterfDist 260m
param *.**.nic.phy80211p.usePropagationDelay true
param *.**.nic.phy80211p.useNoiseFloor true
param *.**.nic.phy80211p.noiseFloor -98dBm
param *.**.nic.phy80211p.decider "xmldoc(\"config.xml\")"
param *.**.nic.phy80211p.analogueModels "xmldoc(\"config.xml\")"
param *.**.nic.phy80211p.minPowerLevel -110dBm
param *.**.nic.mac1609_4.txPower 20mW
param *.**.nic.mac1609_4.bitrate 6Mbps
param *.rsu[*].applType "\"siege.DemoRSU11p\""
param *.rsu[0].mobility.x 200
param *.rsu[0].mobility.y 200
param *.rsu[0].mobility.z 3
param *.node[*].applType "\"siege.Demo11p\""
param *.node[*].veinsmobility.x 0
param *.node[*].veinsmobility.y 0
param *.node[*].veinsmobility.z 0
param *.node[*].veinsmobility.setHostSpeed false
param *.fugitivo[*].applType "\"siege.Fugitivo\""
param *.fugitivo[*].veinsmobility.x 0
param *.fugitivo[*].veinsmobility.y 0
param *.fugitivo[*].veinsmobility.z 0
param *.fugitivo[*].veinsmobility.setHostSpeed false

vector 0 Scenario.node[0].veinsmobility posx ETV
vector 1 Scenario.node[0].veinsmobility posy ETV
vector 2 Scenario.node[1].veinsmobility posx ETV
vector 3 Scenario.node[1].veinsmobility posy ETV
vector 4 Scenario.node[2].veinsmobility posx ETV
vector 5 Scenario.node[2].veinsmobility posy ETV
vector 6 Scenario.node[3].veinsmobility posx ETV
vector 7 Scenario.node[3].veinsmobility posy ETV
vector 8 Scenario.node[4].veinsmobility posx ETV
vector 9 Scenario.node[4].veinsmobility posy ETV
vector 10 Scenario.node[5].veinsmobility posx ETV
vector 11 Scenario.node[5].veinsmobility posy ETV
vector 12 Scenario.node[6].veinsmobility posx ETV
vector 13 Scenario.node[6].veinsmobility posy ETV
vector 14 Scenario.node[7].veinsmobility posx ETV
vector 15 Scenario.node[7].veinsmobility posy ETV
vector 16 Scenario.node[8].veinsmobility posx ETV
vector 17 Scenario.node[8].veinsmobility posy ETV
vector 18 Scenario.node[9].veinsmobility posx ETV
vector 19 Scenario.node[9].veinsmobility posy ETV
vector 20 Scenario.node[10].veinsmobility posx ETV
vector 21 Scenario.node[10].veinsmobility posy ETV
vector 22 Scenario.node[11].veinsmobility posx ETV
vector 23 Scenario.node[11].veinsmobility posy ETV
vector 24 Scenario.node[12].veinsmobility posx ETV
vector 25 Scenario.node[12].veinsmobility posy ETV
vector 26 Scenario.node[13].veinsmobility posx ETV
vector 27 Scenario.node[13].veinsmobility posy ETV
vector 28 Scenario.node[14].veinsmobility posx ETV
vector 29 Scenario.node[14].veinsmobility posy ETV
vector 30 Scenario.node[15].veinsmobility posx ETV
vector 31 Scenario.node[15].veinsmobility posy ETV
vector 32 Scenario.node[16].veinsmobility posx ETV
vector 33 Scenario.node[16].veinsmobility posy ETV
vector 34 Scenario.node[17].veinsmobility posx ETV
vector 35 Scenario.node[17].veinsmobility posy ETV
vector 36 Scenario.node[18].veinsmobility posx ETV
vector 37 Scenario.node[18].veinsmobility posy ETV
vector 38 Scenario.node[19].veinsmobility posx ETV
vector 39 Scenario.node[19].veinsmobility posy ETV
vector 40 Scenario.node[20].veinsmobility posx ETV
vector 41 Scenario.node[20].veinsmobility posy ETV
vector 42 Scenario.node[21].veinsmobility posx ETV
vector 43 Scenario.node[21].veinsmobility posy ETV
vector 44 Scenario.node[22].veinsmobility posx ETV
vector 45 Scenario.node[22].veinsmobility posy ETV
vector 46 Scenario.node[23].veinsmobility posx ETV
vector 47 Scenario.node[23].veinsmobility posy ETV
vector 48 Scenario.node[24].veinsmobility posx ETV
vector 49 Scenario.node[24].veinsmobility posy ETV
vector 50 Scenario.node[25].veinsmobility posx ETV
vector 51 Scenario.node[25].veinsmobility posy ETV
vector 52 Scenario.node[26].veinsmobility posx ETV
vector 53 Scenario.node[26].veinsmobility posy ETV
vector 54 Scenario.node[27].veinsmobility posx ETV
vector 55 Scenario.node[27].veinsmobility posy ETV
vector 56 Scenario.node[28].veinsmobility posx ETV
vector 57 Scenario.node[28].veinsmobility posy ETV
vector 58 Scenario.node[29].veinsmobility posx ETV
vector 59 Scenario.node[29].veinsmobility posy ETV
vector 60 Scenario.node[30].veinsmobility posx ETV
vector 61 Scenario.node[30].veinsmobility posy ETV
vector 62 Scenario.node[31].veinsmobility posx ETV
vector 63 Scenario.node[31].veinsmobility posy ETV
vector 64 Scenario.node[32].veinsmobility posx ETV
vector 65 Scenario.node[32].veinsmobility posy ETV
vector 66 Scenario.node[33].veinsmobility posx ETV
vector 67 Scenario.node[33].veinsmobility posy ETV
vector 68 Scenario.node[34].veinsmobility posx ETV
vector 69 Scenario.node[34].veinsmobility posy ETV
vector 70 Scenario.node[35].veinsmobility posx ETV
vector 71 Scenario.node[35].veinsmobility posy ETV
vector 72 Scenario.node[36].veinsmobility posx ETV
vector 73 Scenario.node[36].veinsmobility posy ETV
vector 74 Scenario.node[37].veinsmobility posx ETV
vector 75 Scenario.node[37].veinsmobility posy ETV
vector 76 Scenario.node[38].veinsmobility posx ETV
vector 77 Scenario.node[38].veinsmobility posy ETV
vector 78 Scenario.node[39].veinsmobility posx ETV
vector 79 Scenario.node[39].veinsmobility posy ETV
vector 80 Scenario.node[40].veinsmobility posx ETV
vector 81 Scenario.node[40].veinsmobility posy ETV
vector 82 Scenario.node[41].veinsmobility posx ETV
vector 83 Scenario.node[41].veinsmobility posy ETV
vector 84 Scenario.node[42].veinsmobility posx ETV
vector 85 Scenario.node[42].veinsmobility posy ETV
vector 86 Scenario.node[43].veinsmobility posx ETV
vector 87 Scenario.node[43].veinsmobility posy ETV
vector 88 Scenario.node[44].veinsmobility posx ETV
vector 89 Scenario.node[44].veinsmobility posy ETV
vector 90 Scenario.node[45].veinsmobility posx ETV
vector 91 Scenario.node[45].veinsmobility posy ETV
vector 92 Scenario.node[46].veinsmobility posx ETV
vector 93 Scenario.node[46].veinsmobility posy ETV
vector 94 Scenario.node[47].veinsmobility posx ETV
vector 95 Scenario.node[47].veinsmobility posy ETV
vector 96 Scenario.node[48].veinsmobility posx ETV
vector 97 Scenario.node[48].veinsmobility posy ETV
vector 98 Scenario.node[49].veinsmobility posx ETV
vector 99 Scenario.node[49].veinsmobility posy ETV
vector 100 Scenario.node[50].veinsmobility posx ETV
vector 101 Scenario.node[50].veinsmobility posy ETV
vector 102 Scenario.node[51].veinsmobility posx ETV
vector 103 Scenario.node[51].veinsmobility posy ETV
vector 104 Scenario.node[52].veinsmobility posx ETV
vector 105 Scenario.node[52].veinsmobility posy ETV
vector 106 Scenario.node[53].veinsmobility posx ETV
vector 107 Scenario.node[53].veinsmobility posy ETV
vector 108 Scenario.node[54].veinsmobility posx ETV
vector 109 Scenario.node[54].veinsmobility posy ETV
vector 110 Scenario.node[55].veinsmobility posx ETV
vector 111 Scenario.node[55].veinsmobility posy ETV
vector 112 Scenario.node[56].veinsmobility posx ETV
vector 113 Scenario.node[56].veinsmobility posy ETV
vector 114 Scenario.node[57].veinsmobility posx ETV
vector 115 Scenario.node[57].veinsmobility posy ETV
vector 116 Scenario.node[58].veinsmobility posx ETV
vector 117 Scenario.node[58].veinsmobility posy ETV
vector 118 Scenario.node[59].veinsmobility posx ETV
vector 119 Scenario.node[59].veinsmobility posy ETV
vector 120 Scenario.node[60].veinsmobility posx ETV
vector 121 Scenario.node[60].veinsmobility posy ETV
vector 122 Scenario.node[61].veinsmobility posx ETV
vector 123 Scenario.node[61].veinsmobility posy ETV
vector 124 Scenario.node[62].veinsmobility posx ETV
vector 125 Scenario.node[62].veinsmobility posy ETV
vector 126 Scenario.node[63].veinsmobility posx ETV
vector 127 Scenario.node[63].veinsmobility posy ETV
vector 128 Scenario.node[64].veinsmobility posx ETV
vector 129 Scenario.node[64].veinsmobility posy ETV
vector 130 Scenario.node[65].veinsmobility posx ETV
vector 131 Scenario.node[65].veinsmobility posy ETV
vector 132 Scenario.node[66].veinsmobility posx ETV
vector 133 Scenario.node[66].veinsmobility posy ETV
vector 134 Scenario.node[67].veinsmobility posx ETV
vector 135 Scenario.node[67].veinsmobility posy ETV
vector 136 Scenario.node[68].veinsmobility posx ETV
vector 137 Scenario.node[68].veinsmobility posy ETV
vector 138 Scenario.node[69].veinsmobility posx ETV
vector 139 Scenario.node[69].veinsmobility posy ETV
vector 140 Scenario.node[70].veinsmobility posx ETV
vector 141 Scenario.node[70].veinsmobility posy ETV
vector 142 Scenario.node[71].veinsmobility posx ETV
vector 143 Scenario.node[71].veinsmobility posy ETV
vector 144 Scenario.node[72].veinsmobility posx ETV
vector 145 Scenario.node[72].veinsmobility posy ETV
vector 146 Scenario.node[73].veinsmobility posx ETV
vector 147 Scenario.node[73].veinsmobility posy ETV
vector 148 Scenario.node[74].veinsmobility posx ETV
vector 149 Scenario.node[74].veinsmobility posy ETV
vector 150 Scenario.node[75].veinsmobility posx ETV
vector 151 Scenario.node[75].veinsmobility posy ETV
vector 152 Scenario.node[76].veinsmobility posx ETV
vector 153 Scenario.node[76].veinsmobility posy ETV
vector 154 Scenario.node[77].veinsmobility posx ETV
vector 155 Scenario.node[77].veinsmobility posy ETV
vector 156 Scenario.node[78].veinsmobility posx ETV
vector 157 Scenario.node[78].veinsmobility posy ETV
vector 158 Scenario.node[79].veinsmobility posx ETV
vector 159 Scenario.node[79].veinsmobility posy ETV
vector 160 Scenario.node[80].veinsmobility posx ETV
vector 161 Scenario.node[80].veinsmobility posy ETV
vector 162 Scenario.node[81].veinsmobility posx ETV
vector 163 Scenario.node[81].veinsmobility posy ETV
vector 164 Scenario.node[82].veinsmobility posx ETV
vector 165 Scenario.node[82].veinsmobility posy ETV
vector 166 Scenario.node[83].veinsmobility posx ETV
vector 167 Scenario.node[83].veinsmobility posy ETV
vector 168 Scenario.node[84].veinsmobility posx ETV
vector 169 Scenario.node[84].veinsmobility posy ETV
vector 170 Scenario.node[85].veinsmobility posx ETV
vector 171 Scenario.node[85].veinsmobility posy ETV
vector 172 Scenario.node[86].veinsmobility posx ETV
vector 173 Scenario.node[86].veinsmobility posy ETV
vector 174 Scenario.node[87].veinsmobility posx ETV
vector 175 Scenario.node[87].veinsmobility posy ETV
vector 176 Scenario.node[88].veinsmobility posx ETV
vector 177 Scenario.node[88].veinsmobility posy ETV
vector 178 Scenario.node[0].veinsmobility speed ETV
vector 179 Scenario.node[1].veinsmobility speed ETV
vector 180 Scenario.node[2].veinsmobility speed ETV
vector 181 Scenario.node[3].veinsmobility speed ETV
vector 182 Scenario.node[4].veinsmobility speed ETV
vector 183 Scenario.node[5].veinsmobility speed ETV
vector 184 Scenario.node[6].veinsmobility speed ETV
vector 185 Scenario.node[7].veinsmobility speed ETV
vector 186 Scenario.node[8].veinsmobility speed ETV
vector 187 Scenario.node[9].veinsmobility speed ETV
vector 188 Scenario.node[10].veinsmobility speed ETV
vector 189 Scenario.node[11].veinsmobility speed ETV
vector 190 Scenario.node[12].veinsmobility speed ETV
vector 191 Scenario.node[13].veinsmobility speed ETV
vector 192 Scenario.node[14].veinsmobility speed ETV
vector 193 Scenario.node[15].veinsmobility speed ETV
vector 194 Scenario.node[16].veinsmobility speed ETV
vector 195 Scenario.node[17].veinsmobility speed ETV
vector 196 Scenario.node[18].veinsmobility speed ETV
vector 197 Scenario.node[19].veinsmobility speed ETV
vector 198 Scenario.node[20].veinsmobility speed ETV
vector 199 Scenario.node[21].veinsmobility speed ETV
vector 200 Scenario.node[22].veinsmobility speed ETV
vector 201 Scenario.node[23].veinsmobility speed ETV
vector 202 Scenario.node[24].veinsmobility speed ETV
vector 203 Scenario.node[25].veinsmobility speed ETV
vector 204 Scenario.node[26].veinsmobility speed ETV
vector 205 Scenario.node[27].veinsmobility speed ETV
vector 206 Scenario.node[28].veinsmobility speed ETV
vector 207 Scenario.node[29].veinsmobility speed ETV
vector 208 Scenario.node[30].veinsmobility speed ETV
vector 209 Scenario.node[31].veinsmobility speed ETV
vector 210 Scenario.node[32].veinsmobility speed ETV
vector 211 Scenario.node[33].veinsmobility speed ETV
vector 212 Scenario.node[34].veinsmobility speed ETV
vector 213 Scenario.node[35].veinsmobility speed ETV
vector 214 Scenario.node[36].veinsmobility speed ETV
vector 215 Scenario.node[37].veinsmobility speed ETV
vector 216 Scenario.node[38].veinsmobility speed ETV
vector 217 Scenario.node[39].veinsmobility speed ETV
vector 218 Scenario.node[40].veinsmobility speed ETV
vector 219 Scenario.node[41].veinsmobility speed ETV
vector 220 Scenario.node[42].veinsmobility speed ETV
vector 221 Scenario.node[43].veinsmobility speed ETV
vector 222 Scenario.node[44].veinsmobility speed ETV
vector 223 Scenario.node[45].veinsmobility speed ETV
vector 224 Scenario.node[46].veinsmobility speed ETV
vector 225 Scenario.node[47].veinsmobility speed ETV
vector 226 Scenario.node[48].veinsmobility speed ETV
vector 227 Scenario.node[49].veinsmobility speed ETV
vector 228 Scenario.node[50].veinsmobility speed ETV
vector 229 Scenario.node[51].veinsmobility speed ETV
vector 230 Scenario.node[52].veinsmobility speed ETV
vector 231 Scenario.node[53].veinsmobility speed ETV
vector 232 Scenario.node[54].veinsmobility speed ETV
vector 233 Scenario.node[55].veinsmobility speed ETV
vector 234 Scenario.node[56].veinsmobility speed ETV
vector 235 Scenario.node[57].veinsmobility speed ETV
vector 236 Scenario.node[58].veinsmobility speed ETV
vector 237 Scenario.node[59].veinsmobility speed ETV
vector 238 Scenario.node[60].veinsmobility speed ETV
vector 239 Scenario.node[61].veinsmobility speed ETV
vector 240 Scenario.node[62].veinsmobility speed ETV
vector 241 Scenario.node[63].veinsmobility speed ETV
vector 242 Scenario.node[64].veinsmobility speed ETV
vector 243 Scenario.node[65].veinsmobility speed ETV
vector 244 Scenario.node[66].veinsmobility speed ETV
vector 245 Scenario.node[67].veinsmobility speed ETV
vector 246 Scenario.node[68].veinsmobility speed ETV
vector 247 Scenario.node[69].veinsmobility speed ETV
vector 248 Scenario.node[70].veinsmobility speed ETV
vector 249 Scenario.node[71].veinsmobility speed ETV
vector 250 Scenario.node[72].veinsmobility speed ETV
vector 251 Scenario.node[73].veinsmobility speed ETV
vector 252 Scenario.node[74].veinsmobility speed ETV
vector 253 Scenario.node[75].veinsmobility speed ETV
vector 254 Scenario.node[76].veinsmobility speed ETV
vector 255 Scenario.node[77].veinsmobility speed ETV
vector 256 Scenario.node[78].veinsmobility speed ETV
vector 257 Scenario.node[79].veinsmobility speed ETV
vector 258 Scenario.node[80].veinsmobility speed ETV
vector 259 Scenario.node[81].veinsmobility speed ETV
vector 260 Scenario.node[82].veinsmobility speed ETV
vector 261 Scenario.node[83].veinsmobility speed ETV
vector 262 Scenario.node[84].veinsmobility speed ETV
vector 263 Scenario.node[85].veinsmobility speed ETV
vector 264 Scenario.node[86].veinsmobility speed ETV
vector 265 Scenario.node[87].veinsmobility speed ETV
vector 266 Scenario.node[88].veinsmobility speed ETV
vector 267 Scenario.node[0].veinsmobility acceleration ETV
vector 268 Scenario.node[0].veinsmobility co2emission ETV
vector 269 Scenario.node[1].veinsmobility acceleration ETV
vector 270 Scenario.node[1].veinsmobility co2emission ETV
vector 271 Scenario.node[2].veinsmobility acceleration ETV
vector 272 Scenario.node[2].veinsmobility co2emission ETV
vector 273 Scenario.node[3].veinsmobility acceleration ETV
vector 274 Scenario.node[3].veinsmobility co2emission ETV
vector 275 Scenario.node[4].veinsmobility acceleration ETV
vector 276 Scenario.node[4].veinsmobility co2emission ETV
vector 277 Scenario.node[5].veinsmobility acceleration ETV
vector 278 Scenario.node[5].veinsmobility co2emission ETV
vector 279 Scenario.node[6].veinsmobility acceleration ETV
vector 280 Scenario.node[6].veinsmobility co2emission ETV
vector 281 Scenario.node[7].veinsmobility acceleration ETV
vector 282 Scenario.node[7].veinsmobility co2emission ETV
vector 283 Scenario.node[8].veinsmobility acceleration ETV
vector 284 Scenario.node[8].veinsmobility co2emission ETV
vector 285 Scenario.node[9].veinsmobility acceleration ETV
vector 286 Scenario.node[9].veinsmobility co2emission ETV
vector 287 Scenario.node[10].veinsmobility acceleration ETV
vector 288 Scenario.node[10].veinsmobility co2emission ETV
vector 289 Scenario.node[11].veinsmobility acceleration ETV
vector 290 Scenario.node[11].veinsmobility co2emission ETV
vector 291 Scenario.node[12].veinsmobility acceleration ETV
vector 292 Scenario.node[12].veinsmobility co2emission ETV
vector 293 Scenario.node[13].veinsmobility acceleration ETV
vector 294 Scenario.node[13].veinsmobility co2emission ETV
vector 295 Scenario.node[14].veinsmobility acceleration ETV
vector 296 Scenario.node[14].veinsmobility co2emission ETV
vector 297 Scenario.node[15].veinsmobility acceleration ETV
vector 298 Scenario.node[15].veinsmobility co2emission ETV
vector 299 Scenario.node[16].veinsmobility acceleration ETV
vector 300 Scenario.node[16].veinsmobility co2emission ETV
vector 301 Scenario.node[17].veinsmobility acceleration ETV
vector 302 Scenario.node[17].veinsmobility co2emission ETV
vector 303 Scenario.node[18].veinsmobility acceleration ETV
vector 304 Scenario.node[18].veinsmobility co2emission ETV
vector 305 Scenario.node[19].veinsmobility acceleration ETV
vector 306 Scenario.node[19].veinsmobility co2emission ETV
vector 307 Scenario.node[20].veinsmobility acceleration ETV
vector 308 Scenario.node[20].veinsmobility co2emission ETV
vector 309 Scenario.node[21].veinsmobility acceleration ETV
vector 310 Scenario.node[21].veinsmobility co2emission ETV
vector 311 Scenario.node[22].veinsmobility acceleration ETV
vector 312 Scenario.node[22].veinsmobility co2emission ETV
vector 313 Scenario.node[23].veinsmobility acceleration ETV
vector 314 Scenario.node[23].veinsmobility co2emission ETV
vector 315 Scenario.node[24].veinsmobility acceleration ETV
vector 316 Scenario.node[24].veinsmobility co2emission ETV
vector 317 Scenario.node[25].veinsmobility acceleration ETV
vector 318 Scenario.node[25].veinsmobility co2emission ETV
vector 319 Scenario.node[26].veinsmobility acceleration ETV
vector 320 Scenario.node[26].veinsmobility co2emission ETV
vector 321 Scenario.node[27].veinsmobility acceleration ETV
vector 322 Scenario.node[27].veinsmobility co2emission ETV
vector 323 Scenario.node[28].veinsmobility acceleration ETV
vector 324 Scenario.node[28].veinsmobility co2emission ETV
vector 325 Scenario.node[29].veinsmobility acceleration ETV
vector 326 Scenario.node[29].veinsmobility co2emission ETV
vector 327 Scenario.node[30].veinsmobility acceleration ETV
vector 328 Scenario.node[30].veinsmobility co2emission ETV
vector 329 Scenario.node[31].veinsmobility acceleration ETV
vector 330 Scenario.node[31].veinsmobility co2emission ETV
vector 331 Scenario.node[32].veinsmobility acceleration ETV
vector 332 Scenario.node[32].veinsmobility co2emission ETV
vector 333 Scenario.node[33].veinsmobility acceleration ETV
vector 334 Scenario.node[33].veinsmobility co2emission ETV
vector 335 Scenario.node[34].veinsmobility acceleration ETV
vector 336 Scenario.node[34].veinsmobility co2emission ETV
vector 337 Scenario.node[35].veinsmobility acceleration ETV
vector 338 Scenario.node[35].veinsmobility co2emission ETV
vector 339 Scenario.node[36].veinsmobility acceleration ETV
vector 340 Scenario.node[36].veinsmobility co2emission ETV
vector 341 Scenario.node[37].veinsmobility acceleration ETV
vector 342 Scenario.node[37].veinsmobility co2emission ETV
vector 343 Scenario.node[38].veinsmobility acceleration ETV
vector 344 Scenario.node[38].veinsmobility co2emission ETV
vector 345 Scenario.node[39].veinsmobility acceleration ETV
vector 346 Scenario.node[39].veinsmobility co2emission ETV
vector 347 Scenario.node[40].veinsmobility acceleration ETV
vector 348 Scenario.node[40].veinsmobility co2emission ETV
vector 349 Scenario.node[41].veinsmobility acceleration ETV
vector 350 Scenario.node[41].veinsmobility co2emission ETV
vector 351 Scenario.node[42].veinsmobility acceleration ETV
vector 352 Scenario.node[42].veinsmobility co2emission ETV
vector 353 Scenario.node[43].veinsmobility acceleration ETV
vector 354 Scenario.node[43].veinsmobility co2emission ETV
vector 355 Scenario.node[44].veinsmobility acceleration ETV
vector 356 Scenario.node[44].veinsmobility co2emission ETV
vector 357 Scenario.node[45].veinsmobility acceleration ETV
vector 358 Scenario.node[45].veinsmobility co2emission ETV
vector 359 Scenario.node[46].veinsmobility acceleration ETV
vector 360 Scenario.node[46].veinsmobility co2emission ETV
vector 361 Scenario.node[47].veinsmobility acceleration ETV
vector 362 Scenario.node[47].veinsmobility co2emission ETV
vector 363 Scenario.node[48].veinsmobility acceleration ETV
vector 364 Scenario.node[48].veinsmobility co2emission ETV
vector 365 Scenario.node[49].veinsmobility acceleration ETV
vector 366 Scenario.node[49].veinsmobility co2emission ETV
vector 367 Scenario.node[50].veinsmobility acceleration ETV
vector 368 Scenario.node[50].veinsmobility co2emission ETV
vector 369 Scenario.node[51].veinsmobility acceleration ETV
vector 370 Scenario.node[51].veinsmobility co2emission ETV
vector 371 Scenario.node[52].veinsmobility acceleration ETV
vector 372 Scenario.node[52].veinsmobility co2emission ETV
vector 373 Scenario.node[53].veinsmobility acceleration ETV
vector 374 Scenario.node[53].veinsmobility co2emission ETV
vector 375 Scenario.node[54].veinsmobility acceleration ETV
vector 376 Scenario.node[54].veinsmobility co2emission ETV
vector 377 Scenario.node[55].veinsmobility acceleration ETV
vector 378 Scenario.node[55].veinsmobility co2emission ETV
vector 379 Scenario.node[56].veinsmobility acceleration ETV
vector 380 Scenario.node[56].veinsmobility co2emission ETV
vector 381 Scenario.node[57].veinsmobility acceleration ETV
vector 382 Scenario.node[57].veinsmobility co2emission ETV
vector 383 Scenario.node[58].veinsmobility acceleration ETV
vector 384 Scenario.node[58].veinsmobility co2emission ETV
vector 385 Scenario.node[59].veinsmobility acceleration ETV
vector 386 Scenario.node[59].veinsmobility co2emission ETV
vector 387 Scenario.node[60].veinsmobility acceleration ETV
vector 388 Scenario.node[60].veinsmobility co2emission ETV
vector 389 Scenario.node[61].veinsmobility acceleration ETV
vector 390 Scenario.node[61].veinsmobility co2emission ETV
vector 391 Scenario.node[62].veinsmobility acceleration ETV
vector 392 Scenario.node[62].veinsmobility co2emission ETV
vector 393 Scenario.node[63].veinsmobility acceleration ETV
vector 394 Scenario.node[63].veinsmobility co2emission ETV
vector 395 Scenario.node[64].veinsmobility acceleration ETV
vector 396 Scenario.node[64].veinsmobility co2emission ETV
vector 397 Scenario.node[65].veinsmobility acceleration ETV
vector 398 Scenario.node[65].veinsmobility co2emission ETV
vector 399 Scenario.node[66].veinsmobility acceleration ETV
vector 400 Scenario.node[66].veinsmobility co2emission ETV
vector 401 Scenario.node[67].veinsmobility acceleration ETV
vector 402 Scenario.node[67].veinsmobility co2emission ETV
vector 403 Scenario.node[68].veinsmobility acceleration ETV
vector 404 Scenario.node[68].veinsmobility co2emission ETV
vector 405 Scenario.node[69].veinsmobility acceleration ETV
vector 406 Scenario.node[69].veinsmobility co2emission ETV
vector 407 Scenario.node[70].veinsmobility acceleration ETV
vector 408 Scenario.node[70].veinsmobility co2emission ETV
vector 409 Scenario.node[71].veinsmobility acceleration ETV
vector 410 Scenario.node[71].veinsmobility co2emission ETV
vector 411 Scenario.node[72].veinsmobility acceleration ETV
vector 412 Scenario.node[72].veinsmobility co2emission ETV
vector 413 Scenario.node[73].veinsmobility acceleration ETV
vector 414 Scenario.node[73].veinsmobility co2emission ETV
vector 415 Scenario.node[74].veinsmobility acceleration ETV
vector 416 Scenario.node[74].veinsmobility co2emission ETV
vector 417 Scenario.node[75].veinsmobility acceleration ETV
vector 418 Scenario.node[75].veinsmobility co2emission ETV
vector 419 Scenario.node[76].veinsmobility acceleration ETV
vector 420 Scenario.node[76].veinsmobility co2emission ETV
vector 421 Scenario.node[77].veinsmobility acceleration ETV
vector 422 Scenario.node[77].veinsmobility co2emission ETV
vector 423 Scenario.node[78].veinsmobility acceleration ETV
vector 424 Scenario.node[78].veinsmobility co2emission ETV
vector 425 Scenario.node[79].veinsmobility acceleration ETV
vector 426 Scenario.node[79].veinsmobility co2emission ETV
vector 427 Scenario.node[80].veinsmobility acceleration ETV
vector 428 Scenario.node[80].veinsmobility co2emission ETV
vector 429 Scenario.node[81].veinsmobility acceleration ETV
vector 430 Scenario.node[81].veinsmobility co2emission ETV
vector 431 Scenario.node[82].veinsmobility acceleration ETV
vector 432 Scenario.node[82].veinsmobility co2emission ETV
vector 433 Scenario.node[83].veinsmobility acceleration ETV
vector 434 Scenario.node[83].veinsmobility co2emission ETV
vector 435 Scenario.node[84].veinsmobility acceleration ETV
vector 436 Scenario.node[84].veinsmobility co2emission ETV
vector 437 Scenario.node[85].veinsmobility acceleration ETV
vector 438 Scenario.node[85].veinsmobility co2emission ETV
vector 439 Scenario.node[86].veinsmobility acceleration ETV
vector 440 Scenario.node[86].veinsmobility co2emission ETV
vector 441 Scenario.node[87].veinsmobility acceleration ETV
vector 442 Scenario.node[87].veinsmobility co2emission ETV
vector 443 Scenario.node[88].veinsmobility acceleration ETV
vector 444 Scenario.node[88].veinsmobility co2emission ETV
vector 445 Scenario.node[89].veinsmobility posx ETV
vector 446 Scenario.node[89].veinsmobility posy ETV
vector 447 Scenario.node[90].veinsmobility posx ETV
vector 448 Scenario.node[90].veinsmobility posy ETV
vector 449 Scenario.node[91].veinsmobility posx ETV
vector 450 Scenario.node[91].veinsmobility posy ETV
vector 451 Scenario.node[92].veinsmobility posx ETV
vector 452 Scenario.node[92].veinsmobility posy ETV
vector 453 Scenario.node[93].veinsmobility posx ETV
vector 454 Scenario.node[93].veinsmobility posy ETV
vector 455 Scenario.node[94].veinsmobility posx ETV
vector 456 Scenario.node[94].veinsmobility posy ETV
vector 457 Scenario.node[95].veinsmobility posx ETV
vector 458 Scenario.node[95].veinsmobility posy ETV
vector 459 Scenario.node[96].veinsmobility posx ETV
vector 460 Scenario.node[96].veinsmobility posy ETV
vector 461 Scenario.node[97].veinsmobility posx ETV
vector 462 Scenario.node[97].veinsmobility posy ETV
vector 463 Scenario.node[98].veinsmobility posx ETV
vector 464 Scenario.node[98].veinsmobility posy ETV
0	30	1	115.15
0	1870	2	112.67679368688
0	3746	3	108.16319606919
0	5601	4	102.03922308553
1	30	1	523.35
1	1870	2	523.35
1	3746	3	523.35
1	5601	4	523.35
2	30	1	434.85
2	1870	2	436.82495804224
2	3746	3	440.44389960449
2	5601	4	446.16287675537
3	30	1	26.65
3	1870	2	26.65
3	3746	3	26.65
3	5601	4	26.65
4	30	1	823.35
4	1870	2	823.35
4	3746	3	823.35
4	5601	4	823.35
5	30	1	234.85
5	1870	2	236.41449412054
5	3746	3	240.3405230171
5	5601	4	245.852953617
6	30	1	215.15
6	1870	2	212.94125379105
6	3746	3	209.12236986582
6	5601	4	203.86257040841
7	30	1	723.35
7	1870	2	723.35
7	3746	3	723.35
7	5601	4	723.35
8	30	1	323.35
8	1870	2	323.35
8	3746	3	323.35
8	5601	4	323.35
9	30	1	534.85
9	1870	2	537.37244653592
9	3746	3	541.94754369194
9	5601	4	548.69313637803
10	30	1	223.35
10	1870	2	223.35
10	3746	3	223.35
10	5601	4	223.35
11	30	1	434.85
11	1870	2	437.40611887625
11	3746	3	441.92639799153
11	5601	4	447.94676647896
12	30	1	726.65
12	1870	2	726.65
12	3746	3	726.65
12	5601	4	726.65
13	30	1	715.15
13	1870	2	712.8711803766
13	3746	3	708.24484117897
13	5601	4	701.90676176774
14	30	1	615.15
14	1870	2	613.11679337341
14	3746	3	608.72419345274
14	5601	4	601.76529762836
15	30	1	923.35
15	1870	2	923.35
15	3746	3	923.35
15	5601	4	923.35
16	30	1	123.35
16	1870	2	123.35
16	3746	3	123.35
16	5601	4	123.35
17	30	1	34.85
17	1870	2	36.920006867917
17	3746	3	41.518037882657
17	5601	4	47.690973556228
18	30	1	23.35
18	1870	2	23.35
18	3746	3	23.35
18	5601	4	23.35
19	30	1	534.85
19	1870	2	536.57154915393
19	3746	3	540.83497247442
19	5601	4	547.25210102701
20	30	1	126.65
20	1870	2	126.65
20	3746	3	126.65
20	5601	4	126.65
21	30	1	515.15
21	1870	2	512.61334234003
21	3746	3	507.85252723848
21	5601	4	501.42896839229
22	30	1	434.85
22	1870	2	436.17055058887
22	3746	3	439.96637888425
22	5601	4	445.92877123733
23	30	1	926.65
23	1870	2	926.65
23	3746	3	926.65
23	5601	4	926.65
24	30	1	315.15
24	1870	2	312.6995709327
24	3746	3	308.2950615475
24	5601	4	302.08233867174
25	30	1	223.35
25	1870	2	223.35
25	3746	3	223.35
25	5601	4	223.35
26	30	1	534.85
26	1870	2	536.80701785721
26	3746	3	541.06752767602
26	5601	4	547.59592139956
27	30	1	426.65
27	1870	2	426.65
27	3746	3	426.65
27	5601	4	426.65
28	30	1	723.35
28	1870	2	723.35
28	3746	3	723.35
28	5601	4	723.35
29	30	1	834.85
29	1870	2	836.36470520487
29	3746	3	839.91710619146
29	5601	4	845.93327223754
30	30	1	326.65
30	1870	2	326.65
30	3746	3	326.65
30	5601	4	326.65
31	30	1	315.15
31	1870	2	312.87620070428
31	3746	3	308.06232597595
31	5601	4	301.52831236441
32	30	1	823.35
32	1870	2	823.35
32	3746	3	823.35
32	5601	4	823.35
33	30	1	834.85
33	1870	2	836.60451348345
33	3746	3	840.86021296841
33	5601	4	847.05882306444
34	30	1	523.35
34	1870	2	523.35
34	3746	3	523.35
34	5601	4	523.35
35	30	1	434.85
35	1870	2	436.89557110912
35	3746	3	441.19472958962
35	5601	4	447.19197819463
36	30	1	526.65
36	1870	2	526.65
36	3746	3	526.65
36	5601	4	526.65
37	30	1	315.15
37	1870	2	313.2795152005
37	3746	3	309.26685778797
37	5601	4	303.35067504344
38	30	1	226.65
38	1870	2	226.65
38	3746	3	226.65
38	5601	4	226.65
39	30	1	115.15
39	1870	2	112.78435060245
39	3746	3	107.84401901723
39	5601	4	100.90587151973
40	30	1	823.35
40	1870	2	823.35
40	3746	3	823.35
40	5601	4	823.35
41	30	1	34.85
41	1870	2	37.282073042542
41	3746	3	42.217456494062
41	5601	4	48.959920367785
42	30	1	923.35
42	1870	2	923.35
42	3746	3	923.35
42	5601	4	923.35
43	30	1	334.85
43	1870	2	336.28928180928
43	3746	3	339.09684471951
43	5601	4	344.07283388397
44	30	1	326.65
44	1870	2	326.65
44	3746	3	326.65
44	5601	4	326.65
45	30	1	815.15
45	1870	2	813.58905343122
45	3746	3	810.31190168993
45	5601	4	804.4817419328
46	30	1	915.15
46	1870	2	912.63879890263
46	3746	3	908.39173421871
46	5601	4	901.79701984306
47	30	1	123.35
47	1870	2	123.35
47	3746	3	123.35
47	5601	4	123.35
48	30	1	34.85
48	1870	2	36.907871402032
48	3746	3	40.353418234503
48	5601	4	46.0059327289
49	30	1	126.65
49	1870	2	126.65
49	3746	3	126.65
49	5601	4	126.65
50	30	1	826.65
50	1870	2	826.65
50	3746	3	826.65
50	5601	4	826.65
51	30	1	915.15
51	1870	2	913.60765458609
51	3746	3	910.23407066844
51	5601	4	904.40476896961
52	30	1	815.15
52	1870	2	813.43474454449
52	3746	3	809.53675449509
52	5601	4	803.2407315915
53	30	1	223.35
53	1870	2	223.35
53	3746	3	223.35
53	5601	4	223.35
54	30	1	734.85
54	1870	2	736.90376214006
54	3746	3	741.30541095866
54	5601	4	747.83484843064
55	30	1	626.65
55	1870	2	626.65
55	3746	3	626.65
55	5601	4	626.65
56	30	1	923.35
56	1870	2	923.35
56	3746	3	923.35
56	5601	4	923.35
57	30	1	434.85
57	1870	2	437.35805765558
57	3746	3	441.37418155617
57	5601	4	447.83257830371
58	30	1	534.85
58	1870	2	536.15365974943
58	3746	3	540.05717080345
58	5601	4	545.26192918746
59	30	1	26.65
59	1870	2	26.65
59	3746	3	26.65
59	5601	4	26.65
60	30	1	23.35
60	1870	2	23.35
60	3746	3	23.35
60	5601	4	23.35
61	30	1	234.85
61	1870	2	237.05886467451
61	3746	3	241.62469979301
61	5601	4	248.37039743303
62	30	1	234.85
62	1870	2	237.2495883059
62	3746	3	241.66908834286
62	5601	4	247.72652378099
63	30	1	126.65
63	1870	2	126.65
63	3746	3	126.65
63	5601	4	126.65
64	30	1	626.65
64	1870	2	626.65
64	3746	3	626.65
64	5601	4	626.65
65	30	1	315.15
65	1870	2	313.6089588562
65	3746	3	310.07626268566
65	5601	4	304.44196152457
66	30	1	34.85
66	1870	2	37.302464992669
66	3746	3	41.088101969264
66	5601	4	46.52638392786
67	30	1	726.65
67	1870	2	726.65
67	3746	3	726.65
67	5601	4	726.65
68	30	1	726.65
68	1870	2	726.65
68	3746	3	726.65
68	5601	4	726.65
69	30	1	315.15
69	1870	2	313.48642183607
69	3746	3	309.38940545425
69	5601	4	302.88317173275
70	30	1	815.15
70	1870	2	813.55511456495
70	3746	3	809.37069016336
70	5601	4	803.83115062565
71	30	1	923.35
71	1870	2	923.35
71	3746	3	923.35
71	5601	4	923.35
72	30	1	315.15
72	1870	2	313.22248724827
72	3746	3	308.93545952819
72	5601	4	302.41554640909
73	30	1	723.35
73	1870	2	723.35
73	3746	3	723.35
73	5601	4	723.35
74	30	1	515.15
74	1870	2	513.27012332818
74	3746	3	509.42207993483
74	5601	4	503.48915880646
75	30	1	23.35
75	1870	2	23.35
75	3746	3	23.35
75	5601	4	23.35
76	30	1	623.35
76	1870	2	623.35
76	3746	3	623.35
76	5601	4	623.35
77	30	1	634.85
77	1870	2	636.25153853018
77	3746	3	639.77690993797
77	5601	4	645.64060986815
78	30	1	215.15
78	1870	2	213.65066113037
78	3746	3	210.1426602917
78	5601	4	204.79626625478
79	30	1	623.35
79	1870	2	623.35
79	3746	3	623.35
79	5601	4	623.35
80	30	1	115.15
80	1870	2	113.26095590566
80	3746	3	109.80918053386
80	5601	4	104.82392760844
81	30	1	23.35
81	1870	2	23.35
81	3746	3	23.35
81	5601	4	23.35
82	30	1	326.65
82	1870	2	326.65
82	3746	3	326.65
82	5601	4	326.65
83	30	1	715.15
83	1870	2	713.45488576978
83	3746	3	709.52226217028
83	5601	4	703.22471049016
84	30	1	415.15
84	1870	2	413.34552364866
84	3746	3	409.79626888246
84	5601	4	404.90853722054
85	30	1	823.35
85	1870	2	823.35
85	3746	3	823.35
85	5601	4	823.35
86	30	1	323.35
86	1870	2	323.35
86	3746	3	323.35
86	5601	4	323.35
87	30	1	834.85
87	1870	2	836.68542996629
87	3746	3	839.9672247164
87	5601	4	844.68199162493
88	30	1	334.85
88	1870	2	336.9630978514
88	3746	3	340.44026709776
88	5601	4	345.5658442243
89	30	1	326.65
89	1870	2	326.65
89	3746	3	326.65
89	5601	4	326.65
90	30	1	33.35
90	1870	2	35.233962724311
90	3746	3	38.797333279788
90	5601	4	44.582527668588
91	30	1	26.65
91	1870	2	26.65
91	3746	3	26.65
91	5601	4	26.65
92	30	1	126.65
92	1870	2	126.65
92	3746	3	126.65
92	5601	4	126.65
93	30	1	415.15
93	1870	2	413.68116137208
93	3746	3	410.17554648321
93	5601	4	404.31161620368
94	30	1	615.15
94	1870	2	613.56101313331
94	3746	3	610.16156999627
94	5601	4	604.47093043998
95	30	1	623.35
95	1870	2	623.35
95	3746	3	623.35
95	5601	4	623.35
96	30	1	923.35
96	1870	2	923.35
96	3746	3	923.35
96	5601	4	923.35
97	30	1	734.85
97	1870	2	736.97536274923
97	3746	3	740.6172777344
97	5601	4	746.27262503058
98	30	1	534.85
98	1870	2	537.39986981645
98	3746	3	542.29524662169
98	5601	4	548.77649282932
99	30	1	826.65
99	1870	2	826.65
99	3746	3	826.65
99	5601	4	826.65
100	30	1	626.65
100	1870	2	626.65
100	3746	3	626.65
100	5601	4	626.65
101	30	1	415.15
101	1870	2	413.41982625532
101	3746	3	410.08475019694
101	5601	4	404.89575503801
102	30	1	334.85
102	1870	2	336.56761851029
102	3746	3	340.84105535422
102	5601	4	346.77298914157
103	30	1	26.65
103	1870	2	26.65
103	3746	3	26.65
103	5601	4	26.65
104	30	1	26.65
104	1870	2	26.65
104	3746	3	26.65
104	5601	4	26.65
105	30	1	215.15
105	1870	2	213.62181031124
105	3746	3	210.614781457
105	5601	4	205.24350725494
106	30	1	534.85
106	1870	2	536.74500877131
106	3746	3	540.63307006124
106	5601	4	546.53392254633
107	30	1	126.65
107	1870	2	126.65
107	3746	3	126.65
107	5601	4	126.65
108	30	1	423.35
108	1870	2	423.35
108	3746	3	423.35
108	5601	4	423.35
109	30	1	434.85
109	1870	2	436.44728316392
109	3746	3	440.61758879726
109	5601	4	446.56415172948
110	30	1	834.85
110	1870	2	837.22792997572
110	3746	3	841.83140858766
110	5601	4	848.82136573319
111	30	1	626.65
111	1870	2	626.65
111	3746	3	626.65
111	5601	4	626.65
112	30	1	626.65
112	1870	2	626.65
112	3746	3	626.65
112	5601	4	626.65
113	30	1	815.15
113	1870	2	812.64920077852
113	3746	3	807.84394235448
113	5601	4	801.45257836482
114	30	1	134.85
114	1870	2	136.61261341048
114	3746	3	139.78315544643
114	5601	4	145.05872444403
115	30	1	326.65
115	1870	2	326.65
115	3746	3	326.65
115	5601	4	326.65
116	30	1	315.15
116	1870	2	313.10343783477
116	3746	3	309.64627226295
116	5601	4	304.71751084877
117	30	1	623.35
117	1870	2	623.35
117	3746	3	623.35
117	5601	4	623.35
118	30	1	734.85
118	1870	2	737.06161049397
118	3746	3	741.23025408115
118	5601	4	747.42297823844
119	30	1	126.65
119	1870	2	126.65
119	3746	3	126.65
119	5601	4	126.65
120	30	1	826.65
120	1870	2	826.65
120	3746	3	826.65
120	5601	4	826.65
121	30	1	115.15
121	1870	2	113.65728474739
121	3746	3	110.74714134345
121	5601	4	106.30745846818
122	30	1	515.15
122	1870	2	512.55736678441
122	3746	3	508.41770096966
122	5601	4	502.15499165088
123	30	1	623.35
123	1870	2	623.35
123	3746	3	623.35
123	5601	4	623.35
124	30	1	215.15
124	1870	2	212.66355453439
124	3746	3	207.87672929333
124	5601	4	201.02428343925
125	30	1	523.35
125	1870	2	523.35
125	3746	3	523.35
125	5601	4	523.35
126	30	1	723.35
126	1870	2	723.35
126	3746	3	723.35
126	5601	4	723.35
127	30	1	234.85
127	1870	2	236.27919210889
127	3746	3	240.0838802953
127	5601	4	245.37626125338
128	30	1	234.85
128	1870	2	236.19286121014
128	3746	3	239.42432049105
128	5601	4	243.991290112
129	30	1	326.65
129	1870	2	326.65
129	3746	3	326.65
129	5601	4	326.65
130	30	1	826.65
130	1870	2	826.65
130	3746	3	826.65
130	5601	4	826.65
131	30	1	715.15
131	1870	2	713.78105138559
131	3746	3	710.8282861283
131	5601	4	705.56287984261
132	30	1	726.65
132	1870	2	726.65
132	3746	3	726.65
132	5601	4	726.65
133	30	1	615.15
133	1870	2	613.65014503824
133	3746	3	610.55692064851
133	5601	4	605.45248347751
134	30	1	115.15
134	1870	2	113.65346300099
134	3746	3	109.78949070228
134	5601	4	103.39619058806
135	30	1	623.35
135	1870	2	623.35
135	3746	3	623.35
135	5601	4	623.35
136	30	1	123.35
136	1870	2	123.35
136	3746	3	123.35
136	5601	4	123.35
137	30	1	234.85
137	1870	2	236.33344394614
137	3746	3	239.93236339337
137	5601	4	245.40961542393
138	30	1	715.15
138	1870	2	713.45359030855
138	3746	3	710.42959340094
138	5601	4	705.12793795613
139	30	1	523.35
139	1870	2	523.35
139	3746	3	523.35
139	5601	4	523.35
140	30	1	634.85
140	1870	2	636.20197750791
140	3746	3	639.77119107184
140	5601	4	645.03103897134
141	30	1	426.65
141	1870	2	426.65
141	3746	3	426.65
141	5601	4	426.65
142	30	1	515.15
142	1870	2	513.49771786362
142	3746	3	509.975047209
142	5601	4	504.01483377845
143	30	1	923.35
143	1870	2	923.35
143	3746	3	923.35
143	5601	4	923.35
144	30	1	515.15
144	1870	2	512.97524401483
144	3746	3	508.86244992712
144	5601	4	503.37519538067
145	30	1	323.35
145	1870	2	323.35
145	3746	3	323.35
145	5601	4	323.35
146	30	1	615.15
146	1870	2	613.30696001095
146	3746	3	608.99239152153
146	5601	4	602.61225320059
147	30	1	323.35
147	1870	2	323.35
147	3746	3	323.35
147	5601	4	323.35
148	30	1	426.65
148	1870	2	426.65
148	3746	3	426.65
148	5601	4	426.65
149	30	1	915.15
149	1870	2	912.67104076988
149	3746	3	908.85523422838
149	5601	4	903.06844566786
150	30	1	523.35
150	1870	2	523.35
150	3746	3	523.35
150	5601	4	523.35
151	30	1	134.85
151	1870	2	136.44295330464
151	3746	3	139.68884082669
151	5601	4	144.71360629234
152	30	1	215.15
152	1870	2	212.5634864056
152	3746	3	207.8507721452
152	5601	4	201.19049485885
153	30	1	123.35
153	1870	2	123.35
153	3746	3	123.35
153	5601	4	123.35
154	30	1	916.65
154	1870	2	914.90681035887
154	3746	3	910.75732736061
154	5601	4	904.29643663594
155	30	1	23.35
155	1870	2	23.35
155	3746	3	23.35
155	5601	4	23.35
156	30	1	515.15
156	1870	2	513.14547143106
156	3746	3	508.94179734825
156	5601	4	502.43905642191
157	30	1	723.35
157	1870	2	723.35
157	3746	3	723.35
157	5601	4	723.35
158	30	1	634.85
158	1870	2	636.50294065026
158	3746	3	640.64195060441
158	5601	4	646.59886208035
159	30	1	126.65
159	1870	2	126.65
159	3746	3	126.65
159	5601	4	126.65
160	30	1	526.65
160	1870	2	526.65
160	3746	3	526.65
160	5601	4	526.65
161	30	1	415.15
161	1870	2	413.16585830918
161	3746	3	409.78595229872
161	5601	4	404.79746492475
162	30	1	834.85
162	1870	2	836.61278932618
162	3746	3	840.82975669729
162	5601	4	846.73018467149
163	30	1	326.65
163	1870	2	326.65
163	3746	3	326.65
163	5601	4	326.65
164	30	1	423.35
164	1870	2	423.35
164	3746	3	423.35
164	5601	4	423.35
165	30	1	334.85
165	1870	2	336.7818736587
165	3746	3	340.18219132738
165	5601	4	345.77985228638
166	30	1	523.35
166	1870	2	523.35
166	3746	3	523.35
166	5601	4	523.35
167	30	1	34.85
167	1870	2	36.736542447004
167	3746	3	40.452386892703
167	5601	4	45.838485163939
168	30	1	23.35
168	1870	2	23.35
168	3746	3	23.35
168	5601	4	23.35
169	30	1	634.85
169	1870	2	637.42726265192
169	3746	3	641.44548005394
169	5601	4	647.69337793679
170	30	1	326.65
170	1870	2	326.65
170	3746	3	326.65
170	5601	4	326.65
171	30	1	615.15
171	1870	2	613.67288797984
171	3746	3	610.63646408601
171	5601	4	605.37041794725
172	30	1	234.85
172	1870	2	236.3799565587
172	3746	3	239.43952667234
172	5601	4	245.06514340802
173	30	1	726.65
173	1870	2	726.65
173	3746	3	726.65
173	5601	4	726.65
174	30	1	334.85
174	1870	2	337.04968456214
174	3746	3	340.92232451718
174	5601	4	346.71975555017
175	30	1	726.65
175	1870	2	726.65
175	3746	3	726.65
175	5601	4	726.65
176	30	1	626.65
176	1870	2	626.65
176	3746	3	626.65
176	5601	4	626.65
177	30	1	115.15
177	1870	2	113.13473359204
177	3746	3	109.39894764314
177	5601	4	103.38310061011
178	1870	2	2.4732063131174
178	3746	3	4.5135976176942
178	5601	4	6.1239729836583
179	1870	2	1.9749580422416
179	3746	3	3.6189415622503
179	5601	4	5.7189771508798
180	1870	2	1.5644941205392
180	3746	3	3.9260288965655
180	5601	4	5.5124305998906
181	1870	2	2.208746208949
181	3746	3	3.818883925234
181	5601	4	5.2597994574113
182	1870	2	2.5224465359235
182	3746	3	4.5750971560134
182	5601	4	6.7455926860916
183	1870	2	2.5561188762542
183	3746	3	4.5202791152755
183	5601	4	6.0203684874345
184	1870	2	2.2788196234033
184	3746	3	4.6263391976245
184	5601	4	6.3380794112338
185	1870	2	2.0332066265866
185	3746	3	4.3925999206724
185	5601	4	6.9588958243839
186	1870	2	2.0700068679173
186	3746	3	4.5980310147395
186	5601	4	6.1729356735712
187	1870	2	1.7215491539333
187	3746	3	4.2634233204881
187	5601	4	6.4171285525896
188	1870	2	2.5366576599656
188	3746	3	4.7608151015593
188	5601	4	6.4235588461859
189	1870	2	1.3205505888676
189	3746	3	3.7958282953827
189	5601	4	5.9623923530802
190	1870	2	2.450429067295
190	3746	3	4.4045093852095
190	5601	4	6.2127228757599
191	1870	2	1.9570178572088
191	3746	3	4.2605098188156
191	5601	4	6.5283937235363
192	1870	2	1.5147052048706
192	3746	3	3.5524009865941
192	5601	4	6.0161660460755
193	1870	2	2.2737992957234
193	3746	3	4.8138747283258
193	5601	4	6.5340136115439
194	1870	2	1.754513483448
194	3746	3	4.2556994849583
194	5601	4	6.198610096029
195	1870	2	2.045571109117
195	3746	3	4.2991584805073
195	5601	4	5.9972486050101
196	1870	2	1.8704847994959
196	3746	3	4.0126574125374
196	5601	4	5.9161827445263
197	1870	2	2.3656493975548
197	3746	3	4.9403315852163
197	5601	4	6.9381474975031
198	1870	2	2.4320730425417
198	3746	3	4.9353834515205
198	5601	4	6.7424638737226
199	1870	2	1.4392818092834
199	3746	3	2.8075629102299
199	5601	4	4.9759891644586
200	1870	2	1.5609465687769
200	3746	3	3.277151741297
200	5601	4	5.8301597571233
201	1870	2	2.5112010973739
201	3746	3	4.2470646839123
201	5601	4	6.5947143756552
202	1870	2	2.0578714020317
202	3746	3	3.4455468324712
202	5601	4	5.6525144943967
203	1870	2	1.5423454139149
203	3746	3	3.3735839176457
203	5601	4	5.8293016988318
204	1870	2	1.7152554555098
204	3746	3	3.8979900493985
204	5601	4	6.2960229035933
205	1870	2	2.0537621400552
205	3746	3	4.4016488186084
205	5601	4	6.5294374719728
206	1870	2	2.5080576555803
206	3746	3	4.0161239005858
206	5601	4	6.4583967475453
207	1870	2	1.3036597494269
207	3746	3	3.9035110540222
207	5601	4	5.2047583840089
208	1870	2	2.2088646745076
208	3746	3	4.5658351185033
208	5601	4	6.7456976400223
209	1870	2	2.3995883058989
209	3746	3	4.4195000369567
209	5601	4	6.0574354381301
210	1870	2	1.5410411437973
210	3746	3	3.5326961705461
210	5601	4	5.6343011610908
211	1870	2	2.4524649926694
211	3746	3	3.7856369765941
211	5601	4	5.4382819585968
212	1870	2	1.6635781639256
212	3746	3	4.0970163818216
212	5601	4	6.5062337215058
213	1870	2	1.5948854350485
213	3746	3	4.1844244015869
213	5601	4	5.5395395377185
214	1870	2	1.9275127517292
214	3746	3	4.2870277200826
214	5601	4	6.519913119101
215	1870	2	1.8798766718246
215	3746	3	3.8480433933437
215	5601	4	5.9329211283708
216	1870	2	1.4015385301784
216	3746	3	3.5253714077873
216	5601	4	5.8636999301845
217	1870	2	1.4993388696341
217	3746	3	3.5080008386634
217	5601	4	5.3463940369198
218	1870	2	1.8890440943418
218	3746	3	3.4517753717955
218	5601	4	4.9852529254276
219	1870	2	1.6951142302249
219	3746	3	3.9326235994929
219	5601	4	6.2975516801234
220	1870	2	1.8044763513375
220	3746	3	3.5492547661997
220	5601	4	4.887731661927
221	1870	2	1.8354299662868
221	3746	3	3.2817947501084
221	5601	4	4.7147669085301
222	1870	2	2.1130978513975
222	3746	3	3.4771692463662
222	5601	4	5.1255771265365
223	1870	2	1.8839627243113
223	3746	3	3.5633705554763
223	5601	4	5.7851943888003
224	1870	2	1.4688386279158
224	3746	3	3.5056148888776
224	5601	4	5.8639302795287
225	1870	2	1.5889868666884
225	3746	3	3.3994431370404
225	5601	4	5.6906395562924
226	1870	2	2.1253627492348
226	3746	3	3.6419149851659
226	5601	4	5.6553472961765
227	1870	2	2.5498698164476
227	3746	3	4.8953768052394
227	5601	4	6.4812462076312
228	1870	2	1.7301737446804
228	3746	3	3.3350760583766
228	5601	4	5.1889951589284
229	1870	2	1.71761851029
229	3746	3	4.2734368439298
229	5601	4	5.9319337873487
230	1870	2	1.528189688758
230	3746	3	3.0070288542425
230	5601	4	5.3712742020609
231	1870	2	1.8950087713078
231	3746	3	3.8880612899316
231	5601	4	5.9008524850942
232	1870	2	1.5972831639228
232	3746	3	4.1703056333354
232	5601	4	5.9465629322222
233	1870	2	2.3779299757211
233	3746	3	4.6034786119359
233	5601	4	6.9899571455317
234	1870	2	2.5007992214756
234	3746	3	4.8052584240446
234	5601	4	6.3913639896549
235	1870	2	1.7626134104794
235	3746	3	3.1705420359503
235	5601	4	5.2755689976038
236	1870	2	2.0465621652314
236	3746	3	3.4571655718144
236	5601	4	4.9287614141824
237	1870	2	2.211610493972
237	3746	3	4.1686435871758
237	5601	4	6.1927241572877
238	1870	2	1.4927152526099
238	3746	3	2.9101434039418
238	5601	4	4.439682875271
239	1870	2	2.5926332155941
239	3746	3	4.1396658147452
239	5601	4	6.2627093187766
240	1870	2	2.4864454656141
240	3746	3	4.7868252410553
240	5601	4	6.8524458540836
241	1870	2	1.4291921088938
241	3746	3	3.804688186408
241	5601	4	5.2923809580738
242	1870	2	1.3428612101357
242	3746	3	3.2314592809184
242	5601	4	4.5669696209487
243	1870	2	1.3689486144111
243	3746	3	2.952765257284
243	5601	4	5.265406285692
244	1870	2	1.4998549617594
244	3746	3	3.0932243897347
244	5601	4	5.1044371709926
245	1870	2	1.4965369990095
245	3746	3	3.8639722987078
245	5601	4	6.3933001142228
246	1870	2	1.4834439461352
246	3746	3	3.598919447232
246	5601	4	5.4772520305589
247	1870	2	1.6964096914511
247	3746	3	3.0239969076123
247	5601	4	5.3016554448055
248	1870	2	1.3519775079098
248	3746	3	3.5692135639256
248	5601	4	5.2598478995031
249	1870	2	1.652282136376
249	3746	3	3.5226706546266
249	5601	4	5.9602134305518
250	1870	2	2.1747559851734
250	3746	3	4.1127940877108
250	5601	4	5.487254546443
251	1870	2	1.8430399890523
251	3746	3	4.3145684894174
251	5601	4	6.3801383209415
252	1870	2	2.478959230124
252	3746	3	3.8158065414988
252	5601	4	5.7867885605199
253	1870	2	1.5929533046437
253	3746	3	3.2458875220502
253	5601	4	5.0247654656414
254	1870	2	2.5865135943983
254	3746	3	4.7127142603975
254	5601	4	6.6602772863582
255	1870	2	1.7431896411348
255	3746	3	4.1494829982519
255	5601	4	6.4608907246729
256	1870	2	2.0045285689412
256	3746	3	4.2036740828073
256	5601	4	6.5027409263421
257	1870	2	1.652940650261
257	3746	3	4.1390099541517
257	5601	4	5.9569114759332
258	1870	2	1.9841416908195
258	3746	3	3.3799060104648
258	5601	4	4.9884873739677
259	1870	2	1.7627893261844
259	3746	3	4.2169673711061
259	5601	4	5.9004279742017
260	1870	2	1.9318736586953
260	3746	3	3.400317668682
260	5601	4	5.5976609589998
261	1870	2	1.8865424470045
261	3746	3	3.7158444456989
261	5601	4	5.3860982712358
262	1870	2	2.5772626519203
262	3746	3	4.0182174020214
262	5601	4	6.2478978828527
263	1870	2	1.4771120201563
263	3746	3	3.0364238938317
263	5601	4	5.2660461387597
264	1870	2	1.529956558696
264	3746	3	3.0595701136393
264	5601	4	5.6256167356856
265	1870	2	2.1996845621383
265	3746	3	3.8726399550447
265	5601	4	5.7974310329882
266	1870	2	2.0152664079564
266	3746	3	3.7357859489042
266	5601	4	6.0158470330294
267	3746	3	2.0403913045768
267	5601	4	1.6103753659641
268	3746	3	3.5557213002884
268	5601	4	3.8033536471935
269	3746	3	1.6439835200086
269	5601	4	2.1000355886295
270	3746	3	2.7227809102661
270	5601	4	4.2975862096139
271	3746	3	2.3615347760264
271	5601	4	1.5864017033251
272	3746	3	3.5394022677047
272	5601	4	3.4989215941313
273	3746	3	1.610137716285
273	5601	4	1.4409155321773
274	3746	3	2.7812598204724
274	5601	4	3.2036965751496
275	3746	3	2.0526506200898
275	5601	4	2.1704955300782
276	3746	3	3.6027985505281
276	5601	4	4.9923107963114
277	3746	3	1.9641602390213
277	5601	4	1.500089372159
278	3746	3	3.4763217646449
278	5601	4	3.5970731983674
279	3746	3	2.3475195742212
279	5601	4	1.7117402136093
280	3746	3	3.959683397724
280	5601	4	4.0539134486004
281	3746	3	2.3593932940857
281	5601	4	2.5662959037116
282	3746	3	3.8274214472374
282	5601	4	5.7807473689515
283	3746	3	2.5280241468223
283	5601	4	1.5749046588317
284	3746	3	4.1421572225877
284	5601	4	3.7724620488834
285	3746	3	2.5418741665548
285	5601	4	2.1537052321015
286	3746	3	3.9345640995526
286	5601	4	4.7747392110315
287	3746	3	2.2241574415937
287	5601	4	1.6627437446266
288	3746	3	3.9015312810903
288	5601	4	4.0184139439543
289	3746	3	2.475277706515
289	5601	4	2.1665640576975
290	3746	3	3.5625338215585
290	5601	4	4.5304218814027
291	3746	3	1.9540803179145
291	5601	4	1.8082134905504
292	3746	3	3.4045973435896
292	5601	4	4.1392310074425
293	3746	3	2.3034919616068
293	5601	4	2.2678839047207
294	3746	3	3.6878573350897
294	5601	4	5.0187921911849
295	3746	3	2.0376957817236
295	5601	4	2.4637650594814
296	3746	3	3.0300388559467
296	5601	4	4.9925385572515
297	3746	3	2.5400754326023
297	5601	4	1.7201388832182
298	3746	3	4.2993793204935
298	5601	4	4.1596687416929
299	3746	3	2.5011860015104
299	5601	4	1.9429106110707
300	3746	3	3.8876903650607
300	5601	4	4.3334688456341
301	3746	3	2.2535873713903
301	5601	4	1.6980901245028
302	3746	3	3.6596674128797
302	5601	4	3.8735460128423
303	3746	3	2.1421726130415
303	5601	4	1.9035253319889
304	3746	3	3.3811281053449
304	5601	4	4.1285723803836
305	3746	3	2.5746821876615
305	5601	4	1.9978159122868
306	3746	3	4.4249283417187
306	5601	4	4.8160847476977
307	3746	3	2.5033104089787
307	5601	4	1.8070804222021
308	3746	3	4.3366943488152
308	5601	4	4.399958286106
309	3746	3	1.3682811009465
309	5601	4	2.1684262542287
310	3746	3	2.1732912127287
310	5601	4	3.9618293141696
311	3746	3	1.7162051725201
311	5601	4	2.5530080158263
312	3746	3	2.6267889491483
312	5601	4	4.996704922077
313	3746	3	1.7358635865385
313	5601	4	2.3476496917428
314	3746	3	3.0986855486186
314	5601	4	5.1858049028602
315	3746	3	1.3876754304394
315	5601	4	2.2069676619256
316	3746	3	2.4322853853422
316	5601	4	4.4058161298252
317	3746	3	1.8312385037309
317	5601	4	2.4557177811861
318	3746	3	2.7651472348136
318	5601	4	4.8594481804486
319	3746	3	2.1827345938887
319	5601	4	2.3980328541948
320	3746	3	3.3540053270075
320	5601	4	5.0754103034362
321	3746	3	2.3478866785532
321	5601	4	2.1277886533644
322	3746	3	3.8208455939494
322	5601	4	4.7989722357191
323	3746	3	1.5080662450055
323	5601	4	2.4422728469595
324	3746	3	2.7693578447959
324	5601	4	5.2477718365784
325	3746	3	2.5998513045954
325	5601	4	1.3012473299867
326	3746	3	3.74960015114
326	5601	4	3.006317830952
327	3746	3	2.3569704439957
327	5601	4	2.179862521519
328	3746	3	3.9325795718211
328	5601	4	5.0076001241134
329	3746	3	2.0199117310578
329	5601	4	1.6379354011733
330	3746	3	3.4825779662677
330	5601	4	3.8138698498027
331	3746	3	1.9916550267488
331	5601	4	2.1016049905447
332	3746	3	2.9801448616668
332	5601	4	4.2520210193377
333	3746	3	1.3331719839247
333	5601	4	1.6526449820027
334	3746	3	2.5139350231254
334	5601	4	3.5532000390671
335	3746	3	2.433438217896
335	5601	4	2.4092173396843
336	3746	3	3.7167235600086
336	5601	4	5.2269617200488
337	3746	3	2.5895389665384
337	5601	4	1.3551151361316
338	3746	3	3.9300358770936
338	5601	4	3.202048831067
339	3746	3	2.3595149683533
339	5601	4	2.2328853990184
340	3746	3	3.7618734760178
340	5601	4	4.9586547693625
341	3746	3	1.9681667215191
341	5601	4	2.0848777350271
342	3746	3	3.1261287497072
342	5601	4	4.3965252215164
343	3746	3	2.1238328776089
343	5601	4	2.3383285223972
344	3746	3	3.0885506491761
344	5601	4	4.7159024126575
345	3746	3	2.0086619690293
345	5601	4	1.8383931982564
346	3746	3	2.981393406453
346	5601	4	3.7507621146886
347	3746	3	1.5627312774537
347	5601	4	1.5334775536321
348	3746	3	2.5803144729468
348	5601	4	3.2043244922497
349	3746	3	2.2375093692681
349	5601	4	2.3649280806305
350	3746	3	3.4259552534021
350	5601	4	5.0261409255146
351	3746	3	1.7447784148622
351	5601	4	1.3384768957272
352	3746	3	2.7777781831023
352	5601	4	2.9332209606838
353	3746	3	1.4463647838216
353	5601	4	1.4329721584218
354	3746	3	2.4155269947203
354	5601	4	2.975349355632
355	3746	3	1.3640713949688
355	5601	4	1.6484078801703
356	3746	3	2.4247111969187
356	5601	4	3.4059163417038
357	3746	3	1.679407831165
357	5601	4	2.221823833324
358	3746	3	2.7283057293664
358	5601	4	4.5047018749162
359	3746	3	2.0367762609618
359	5601	4	2.3583153906511
360	3746	3	3.0038676171998
360	5601	4	4.7442911162326
361	3746	3	1.810456270352
361	5601	4	2.2911964192521
362	3746	3	2.7608631102024
362	5601	4	4.5437881163169
363	3746	3	1.5165522359312
363	5601	4	2.0134323110105
364	3746	3	2.6212285028239
364	5601	4	4.1437077696626
365	3746	3	2.3455069887917
365	5601	4	1.5858694023918
366	3746	3	4.1241863887608
366	5601	4	3.9249027333988
367	3746	3	1.6049023136962
367	5601	4	1.8539191005519
368	3746	3	2.5642564572968
368	5601	4	3.6916385569423
369	3746	3	2.5558183336398
369	5601	4	1.6584969434189
370	3746	3	3.9555929879052
370	5601	4	3.786419574843
371	3746	3	1.4788391654845
371	5601	4	2.3642453478184
372	3746	3	2.3292766763502
372	5601	4	4.4438871268835
373	3746	3	1.9930525186239
373	5601	4	2.0127911951626
374	3746	3	3.1705253221761
374	5601	4	4.2760393572504
375	3746	3	2.5730224694125
375	5601	4	1.7762572988868
376	3746	3	3.9038754814043
376	5601	4	3.9618804513584
377	3746	3	2.2255486362148
377	5601	4	2.3864785335958
378	3746	3	3.8101930103889
378	5601	4	5.498958530739
379	3746	3	2.304459202569
379	5601	4	1.5861055656103
380	3746	3	4.0207744455455
380	5601	4	3.8855461653815
381	3746	3	1.407928625471
381	5601	4	2.1050269616535
382	3746	3	2.3416903386739
382	5601	4	4.0544140343296
383	3746	3	1.410603406583
383	5601	4	1.471595842368
384	3746	3	2.4558729418735
384	5601	4	3.1068321369556
385	3746	3	1.9570330932038
385	5601	4	2.024080570112
386	3746	3	3.2839071852982
386	5601	4	4.4515080743908
387	3746	3	1.4174281513318
387	5601	4	1.5295394713292
388	3746	3	2.2467675941473
388	5601	4	2.9688058612387
389	3746	3	1.5470325991511
389	5601	4	2.1230435040314
390	3746	3	2.8596626166072
390	5601	4	4.63914144683
391	3746	3	2.3003797754413
391	5601	4	2.0656206130283
392	3746	3	4.0048242710863
392	5601	4	4.8815335146976
393	3746	3	2.3754960775143
393	5601	4	1.4876927716658
394	3746	3	3.4767892255825
394	5601	4	3.2764966126748
395	3746	3	1.8885980707826
395	5601	4	1.3355103400303
396	3746	3	2.739808416122
396	5601	4	2.8090257670555
397	3746	3	1.583816642873
397	5601	4	2.312641028408
398	3746	3	2.381889597144
398	5601	4	4.3121444400606
399	3746	3	1.5933694279753
399	5601	4	2.0112127812579
400	3746	3	2.4497556493486
400	5601	4	3.8426565486837
401	3746	3	2.3674352996983
401	5601	4	2.529327815515
402	3746	3	3.5063241438631
402	5601	4	5.339704579006
403	3746	3	2.1154755010968
403	5601	4	1.8783325833268
404	3746	3	3.1227536702837
404	5601	4	3.868834587251
405	3746	3	1.3275872161612
405	5601	4	2.2776585371932
406	3746	3	2.2259555067676
406	5601	4	4.2896797896685
407	3746	3	2.2172360560158
407	5601	4	1.6906343355775
408	3746	3	3.1936024092487
408	5601	4	3.5202654900138
409	3746	3	1.8703885182505
409	5601	4	2.4375427759252
410	3746	3	2.8718636633941
410	5601	4	4.9183945339032
411	3746	3	1.9380381025374
411	5601	4	1.3744604587322
412	3746	3	3.2357789687789
412	5601	4	3.2075935635367
413	3746	3	2.4715285003651
413	5601	4	2.065569831524
414	3746	3	3.8954769936261
414	5601	4	4.617817398546
415	3746	3	1.3368473113747
415	5601	4	1.9709820190212
416	3746	3	2.5285843628959
416	5601	4	4.1558191642787
417	3746	3	1.6529342174064
417	5601	4	1.7788779435912
418	3746	3	2.5627632755584
418	5601	4	3.518279597303
419	3746	3	2.1262006659992
419	5601	4	1.9475630259607
420	3746	3	3.7618728991628
420	5601	4	4.584670330842
421	3746	3	2.4062933571171
421	5601	4	2.311407726421
422	3746	3	3.7231257060069
422	5601	4	5.0456221473109
423	3746	3	2.1991455138661
423	5601	4	2.2990668435348
424	3746	3	3.5475697126176
424	5601	4	5.0521007687714
425	3746	3	2.4860693038907
425	5601	4	1.8179015217815
426	3746	3	3.7960737624968
426	5601	4	4.0266963401678
427	3746	3	1.3957643196452
427	5601	4	1.6085813635029
428	3746	3	2.413543613418
428	5601	4	3.295989875238
429	3746	3	2.4541780449217
429	5601	4	1.6834606030956
430	3746	3	3.8145084421514
430	5601	4	3.8074997231609
431	3746	3	1.4684440099867
431	5601	4	2.1973432903178
432	3746	3	2.4810186447902
432	5601	4	4.3605298966104
433	3746	3	1.8293019986944
433	5601	4	1.6702538255369
434	3746	3	2.932165777894
434	5601	4	3.5523321228145
435	3746	3	1.4409547501011
435	5601	4	2.2296804808313
436	3746	3	2.7052389416268
436	5601	4	4.7912559275428
437	3746	3	1.5593118736753
437	5601	4	2.229622244928
438	3746	3	2.4001336467644
438	5601	4	4.207176283976
439	3746	3	1.5296135549434
439	5601	4	2.5660466220463
440	3746	3	2.3881097837276
440	5601	4	4.8768049678668
441	3746	3	1.6729553929064
441	5601	4	1.9247910779435
442	3746	3	2.8635611413366
442	5601	4	4.0969496515867
443	3746	3	1.7205195409479
443	5601	4	2.2800610841252
444	3746	3	2.8440564178375
444	5601	4	4.7259930101105
445	5601	4	415.15
446	5601	4	823.35
447	5601	4	726.65
448	5601	4	715.15
449	5601	4	126.65
450	5601	4	515.15
451	5601	4	534.85
452	5601	4	26.65
453	5601	4	323.35
454	5601	4	534.85
455	5601	4	315.15
456	5601	4	723.35
457	5601	4	234.85
458	5601	4	126.65
459	5601	4	823.35
460	5601	4	34.85
461	5601	4	534.85
462	5601	4	826.65
463	5601	4	615.15
464	5601	4	923.35
vector 465 Scenario.fugitivo[99].veinsmobility posx ETV
vector 466 Scenario.fugitivo[99].veinsmobility posy ETV
vector 467 Scenario.node[89].veinsmobility speed ETV
vector 468 Scenario.node[90].veinsmobility speed ETV
vector 469 Scenario.node[91].veinsmobility speed ETV
vector 470 Scenario.node[92].veinsmobility speed ETV
vector 471 Scenario.node[93].veinsmobility speed ETV
vector 472 Scenario.node[94].veinsmobility speed ETV
vector 473 Scenario.node[95].veinsmobility speed ETV
vector 474 Scenario.node[96].veinsmobility speed ETV
vector 475 Scenario.node[97].veinsmobility speed ETV
vector 476 Scenario.node[98].veinsmobility speed ETV
vector 477 Scenario.node[89].veinsmobility acceleration ETV
vector 478 Scenario.node[89].veinsmobility co2emission ETV
vector 479 Scenario.node[90].veinsmobility acceleration ETV
vector 480 Scenario.node[90].veinsmobility co2emission ETV
vector 481 Scenario.node[91].veinsmobility acceleration ETV
vector 482 Scenario.node[91].veinsmobility co2emission ETV
vector 483 Scenario.node[92].veinsmobility acceleration ETV
vector 484 Scenario.node[92].veinsmobility co2emission ETV
vector 485 Scenario.node[93].veinsmobility acceleration ETV
vector 486 Scenario.node[93].veinsmobility co2emission ETV
vector 487 Scenario.node[94].veinsmobility acceleration ETV
vector 488 Scenario.node[94].veinsmobility co2emission ETV
vector 489 Scenario.node[95].veinsmobility acceleration ETV
vector 490 Scenario.node[95].veinsmobility co2emission ETV
vector 491 Scenario.node[96].veinsmobility acceleration ETV
vector 492 Scenario.node[96].veinsmobility co2emission ETV
vector 493 Scenario.node[97].veinsmobility acceleration ETV
vector 494 Scenario.node[97].veinsmobility co2emission ETV
vector 495 Scenario.node[98].veinsmobility acceleration ETV
vector 496 Scenario.node[98].veinsmobility co2emission ETV
vector 497 Scenario.fugitivo[99].veinsmobility speed ETV
vector 498 Scenario.node[100].veinsmobility posx ETV
vector 499 Scenario.node[100].veinsmobility posy ETV
vector 500 Scenario.fugitivo[99].veinsmobility acceleration ETV
vector 501 Scenario.fugitivo[99].veinsmobility co2emission ETV
vector 502 Scenario.node[100].veinsmobility speed ETV
vector 503 Scenario.node[100].veinsmobility acceleration ETV
vector 504 Scenario.node[100].veinsmobility co2emission ETV
320	7659	5	5.1089380527165
320	9781	6	4.8545577030958
320	11892	7	5.9822630504331
320	14025	8	6.8287603812444
320	16158	9	4.2457656293185
320	18290	10	0.973
320	20429	11	0.973
320	22572	12	4.434529272818
320	24727	13	6.2116932174
320	26879	14	7.8932200896828
320	29027	15	8.123160561016
320	31177	16	2.4144153312305
320	33332	17	1.4823360045369
320	35488	18	0.973
320	37662	19	6.111232638113
319	7659	5	1.8192625849275
319	9781	6	1.3983342896914
319	11892	7	1.5757762638619
319	14025	8	1.6070200065151
319	16158	9	0.70213180931964
319	18290	10	-3.7905132572192
319	20429	11	-3.4182328230469
319	22572	12	1.5574287398718
319	24727	13	1.9473776082275
319	26879	14	2.1271420360077
319	29027	15	1.8557293488902
319	31177	16	0.11917695854791
319	33332	17	-0.15818580016494
319	35488	18	-0.61412382326089
319	37662	19	1.1831035624025
204	7659	5	8.1152854885207
204	9781	6	9.5136197782122
204	11892	7	11.089396042074
204	14025	8	12.696416048589
204	16158	9	13.398547857909
204	18290	10	9.6080346006896
204	20429	11	6.1898017776427
204	22572	12	7.7472305175146
204	24727	13	9.6946081257421
204	26879	14	11.82175016175
204	29027	15	13.67747951064
204	31177	16	13.796656469188
204	33332	17	13.638470669023
204	35488	18	13.024346845762
204	37662	19	14.207450408165
53	7659	5	223.35
53	9781	6	223.35
53	11892	7	223.35
53	14025	8	223.35
53	16158	9	223.35
53	18290	10	223.35
53	20429	11	223.35
53	22572	12	220.38121422319
53	24727	13	210.6877913546
53	26879	14	198.86604119285
53	29027	15	185.18856168221
53	31177	16	171.39190521303
53	33332	17	157.753434544
53	35488	18	144.72908769824
53	37662	19	130.52163729008
52	7659	5	795.12544610298
52	9781	6	785.61182632477
52	11892	7	774.52243028269
52	14025	8	761.8260142341
52	16158	9	748.42746637619
52	18290	10	738.8194317755
52	20429	11	732.62962999786
52	22572	12	726.66833139883
52	24727	13	726.65
52	26879	14	726.65
52	29027	15	726.65
52	31177	16	726.65
52	33332	17	726.65
52	35488	18	726.65
52	37662	19	726.65
398	7659	5	5.9120963548844
398	9781	6	5.7326359315938
398	11892	7	9.3880458407546
398	14025	8	6.7006737338367
398	16158	9	8.9533952355083
398	18290	10	4.0420075878775
398	20429	11	5.1701575691586
398	22572	12	2.1560889077507
398	24727	13	2.4257657358184
398	26879	14	0.973
398	29027	15	1.0267670595052
398	31177	16	0.973
398	33332	17	0.973
398	35488	18	6.0327279107809
398	37662	19	6.8936019011838
398	39848	20	6.2284130576964
398	42007	21	10.156989512836
398	44166	22	9.1834463196527
398	46331	23	3.043876949374
398	48492	24	0.973
397	7659	5	2.3827190293698
397	9781	6	1.796531952708
397	11892	7	2.596795658418
397	14025	8	1.4495681964792
397	16158	9	1.8335435747402
397	18290	10	0.47421780648998
397	20429	11	0.71545416237787
397	22572	12	-0.040698660165074
397	24727	13	0.026365109696055
397	26879	14	-0.68978550930042
397	29027	15	-0.31449327947769
397	31177	16	-4.3371252123422
397	33332	17	-4.5
397	35488	18	2.102037433465
397	37662	19	1.9882119231392
397	39848	20	1.4793556719786
397	42007	21	2.302391685592
397	44166	22	1.7551788957406
397	46331	23	0.18311886047474
397	48492	24	-0.48777940955939
243	7659	5	7.6481253150618
243	9781	6	9.4446572677698
243	11892	7	12.041452926188
243	14025	8	13.491021122667
243	16158	9	15.324564697407
243	18290	10	15.798782503897
243	20429	11	16.514236666275
243	22572	12	16.47353800611
243	24727	13	16.499903115806
243	26879	14	15.810117606506
243	29027	15	15.495624327028
243	31177	16	11.158499114686
243	33332	17	6.6584991146857
243	35488	18	8.7605365481507
243	37662	19	10.74874847129
243	39848	20	12.228104143268
243	42007	21	14.53049582886
243	44166	22	16.285674724601
243	46331	23	16.468793585076
243	48492	24	15.981014175516
131	7659	5	697.91475452755
131	9781	6	688.47009725978
131	11892	7	676.42864433359
131	14025	8	662.93762321093
131	16158	9	647.61305851352
131	18290	10	631.81427600962
131	20429	11	623.35
131	22572	12	623.35
131	24727	13	623.35
131	26879	14	623.35
131	29027	15	623.35
131	31177	16	623.35
131	33332	17	623.35
131	35488	18	620.75838780579
131	37662	19	610.01457303909
131	39848	20	597.78646889582
131	42007	21	583.25597306696
131	44166	22	566.97029834236
131	46331	23	550.50150475728
131	48492	24	534.52049058176
130	7659	5	826.65
130	9781	6	826.65
130	11892	7	826.65
130	14025	8	826.65
130	16158	9	826.65
130	18290	10	826.65
130	20429	11	816.12003934335
130	22572	12	799.64650133724
130	24727	13	783.14659822143
130	26879	14	767.33648061493
130	29027	15	751.8408562879
130	31177	16	740.68235717321
130	33332	17	734.02385805853
130	35488	18	726.72102476699
130	37662	19	726.65
130	39848	20	726.65
130	42007	21	726.65
130	44166	22	726.65
130	46331	23	726.65
130	48492	24	726.65
440	7659	5	6.2124026457037
440	9781	6	7.520893360234
440	11892	7	8.028371464953
440	14025	8	8.2116812612698
440	16158	9	0.973
440	18290	10	0.973
440	20429	11	0.973
440	22572	12	4.6491200852252
440	24727	13	6.4593045870746
440	26879	14	5.8274225008632
440	29027	15	7.4610991371018
440	31177	16	10.784179580962
440	33332	17	5.2363251717986
440	35488	18	0.973
440	37662	19	0.973
440	39848	20	0.973
440	42007	21	0.973
440	44166	22	0.973
440	46331	23	2.9144858471268
440	48492	24	4.9442288103004
440	50649	25	5.5416101877567
440	52789	26	4.8511806773882
440	54929	27	5.0852732419728
440	57079	28	10.11546598724
440	59226	29	9.0954541672076
440	61379	30	1.6641853604283
440	63526	31	5.3158209989348
439	7659	5	2.4098704894772
439	9781	6	2.3259981652023
439	11892	7	2.0531103350688
439	14025	8	1.7960516993888
439	16158	9	-1.0214353761983
439	18290	10	-3.1928389215531
439	20429	11	-4.5
439	22572	12	1.7938292987179
439	24727	13	2.1236870912602
439	26879	14	1.5406996498117
439	29027	15	1.8031093417434
439	31177	16	2.3663311781362
439	33332	17	0.77948283751456
439	35488	18	-2.6587941838807
439	37662	19	-4.3319998913833
439	39848	20	-3.6364972977783
439	42007	21	-3.003491427253
439	44166	22	-1.319618766467
439	46331	23	2.1833249288378
439	48492	24	2.5735996489879
439	50649	25	2.1236608204665
439	52789	26	1.4406770631438
439	54929	27	1.3145985436393
439	57079	28	2.5725495000836
439	59226	29	1.9110875664512
439	61379	30	-0.13182303996034
439	63526	31	0.81251055626199
264	7659	5	8.0354872251628
264	9781	6	10.361485390365
264	11892	7	12.414595725434
264	14025	8	14.210647424823
264	16158	9	13.189212048624
264	18290	10	9.9963731270713
264	20429	11	5.4963731270713
264	22572	12	7.2902024257892
264	24727	13	9.4138895170494
264	26879	14	10.954589166861
264	29027	15	12.757698508605
264	31177	16	15.124029686741
264	33332	17	15.903512524255
264	35488	18	13.244718340375
264	37662	19	8.9127184489913
264	39848	20	5.276221151213
264	42007	21	2.27272972396
264	44166	22	0.95311095749299
264	46331	23	3.1364358863308
264	48492	24	5.7100355353187
264	50649	25	7.8336963557852
264	52789	26	9.274373418929
264	54929	27	10.588971962568
264	57079	28	13.161521462652
264	59226	29	15.072609029103
264	61379	30	14.940785989143
264	63526	31	15.753296545405
173	7659	5	726.65
173	9781	6	726.65
173	11892	7	726.65
173	14025	8	726.65
173	16158	9	726.65
173	18290	10	726.65
173	20429	11	726.65
173	22572	12	726.65
173	24727	13	726.65
173	26879	14	726.65
173	29027	15	726.65
173	31177	16	726.65
173	33332	17	726.65
173	35488	18	726.65
173	37662	19	726.65
173	39848	20	726.65
173	42007	21	726.65
173	44166	22	726.5619177691
173	46331	23	725.77083196708
173	48492	24	721.09237164008
173	50649	25	713.26709429466
173	52789	26	703.99272087573
173	54929	27	693.40374891316
173	57079	28	680.24222745051
173	59226	29	665.16961842141
173	61379	30	650.22883243227
173	63526	31	634.47553588686
172	7659	5	253.10063063318
172	9781	6	263.46211602355
172	11892	7	275.87671174898
172	14025	8	290.08735917381
172	16158	9	303.27657122243
172	18290	10	313.2729443495
172	20429	11	318.76931747657
172	22572	12	326.05951990236
172	24727	13	335.47340941941
172	26879	14	346.42799858627
172	29027	15	359.18569709488
172	31177	16	374.30972678162
172	33332	17	390.21323930587
172	35488	18	403.45795764625
172	37662	19	412.37067609524
172	39848	20	417.64689724645
172	42007	21	419.91962697041
172	44166	22	420.86657561633
172	46331	23	423.84861338821
172	48492	24	426.52966119427
172	50649	25	426.65
172	52789	26	426.65
172	54929	27	426.65
172	57079	28	426.65
172	59226	29	426.65
172	61379	30	426.65
172	63526	31	426.65
312	7659	5	6.1419869909023
312	9781	6	7.8253641844372
312	11892	7	7.0217186307323
312	14025	8	7.1126503648691
312	16158	9	10.300091763707
312	18290	10	2.1021600243999
312	20429	11	1.6876842925914
312	22572	12	0.973
312	24727	13	2.8983654277241
312	26879	14	1.3586502693086
312	29027	15	0.973
312	31177	16	0.973
312	33332	17	0.973
312	35488	18	4.9010604125536
312	37662	19	7.040967908022
312	39848	20	10.067709424033
312	42007	21	11.089351268368
312	44166	22	0.973
312	46331	23	3.6044802194669
312	48492	24	1.6238761602677
312	50649	25	0.973
312	52789	26	5.2456489789476
312	54929	27	3.7196937532921
312	57079	28	0.973
312	59226	29	4.6949343320158
312	61379	30	0.973
312	63526	31	0.973
312	65671	32	7.461584383148
311	7659	5	2.3323004034348
311	9781	6	2.3961414442165
311	11892	7	1.7369166160468
311	14025	8	1.5283418053528
311	16158	9	2.0977254302824
311	18290	10	-0.037691858946346
311	20429	11	-0.14286459388677
311	22572	12	-0.79820754497778
311	24727	13	0.20189565434121
311	26879	14	-0.21647506104782
311	29027	15	-0.7257834531644
311	31177	16	-2.3020158644381
311	33332	17	-4.128323050146
311	35488	18	1.4692793915048
311	37662	19	1.950679934537
311	39848	20	2.4525414166041
311	42007	21	2.299470983202
311	44166	22	-0.35723820391577
311	46331	23	0.35185236884281
311	48492	24	-0.1604538703803
311	50649	25	-0.96993712915573
311	52789	26	0.80544053521007
311	54929	27	0.37889442380983
311	57079	28	-1.2389490235131
311	59226	29	0.67287417995612
311	61379	30	-3.7416160001103
311	63526	31	-4.1424812471498
311	65671	32	2.4099706525914
200	7659	5	8.1624601605581
200	9781	6	10.558601604775
200	11892	7	12.295518220821
200	14025	8	13.823860026174
200	16158	9	15.921585456457
200	18290	10	15.88389359751
200	20429	11	15.741029003624
200	22572	12	14.942821458646
200	24727	13	15.144717112987
200	26879	14	14.928242051939
200	29027	15	14.202458598775
200	31177	16	11.900442734337
200	33332	17	7.7721196841907
200	35488	18	9.2413990756955
200	37662	19	11.192079010233
200	39848	20	13.644620426837
200	42007	21	15.944091410039
200	44166	22	15.586853206123
200	46331	23	15.938705574966
200	48492	24	15.778251704585
200	50649	25	14.80831457543
200	52789	26	15.61375511064
200	54929	27	15.99264953445
200	57079	28	14.753700510936
200	59226	29	15.426574690893
200	61379	30	11.684958690782
200	63526	31	7.5424774436325
200	65671	32	9.952448096224
45	7659	5	796.31928177224
45	9781	6	785.76068016747
45	11892	7	773.46516194665
45	14025	8	759.64130192047
45	16158	9	743.71971646402
45	18290	10	727.85417713675
45	20429	11	723.35
45	22572	12	723.35
45	24727	13	723.35
45	26879	14	723.35
45	29027	15	723.35
45	31177	16	723.35
45	33332	17	723.35
45	35488	18	724.85089612979
45	37662	19	735.58948586392
45	39848	20	749.23410629075
45	42007	21	765.17819770079
45	44166	22	780.76505090692
45	46331	23	796.70375648188
45	48492	24	812.48200818647
45	50649	25	826.01869255517
45	52789	26	826.65
45	54929	27	826.65
45	57079	28	826.65
45	59226	29	826.65
45	61379	30	826.65
45	63526	31	826.65
45	65671	32	826.65
44	7659	5	326.65
44	9781	6	326.65
44	11892	7	326.65
44	14025	8	326.65
44	16158	9	326.65
44	18290	10	326.37916816239
44	20429	11	312.91479386288
44	22572	12	297.97197240424
44	24727	13	282.82725529125
44	26879	14	267.89901323931
44	29027	15	253.69655464054
44	31177	16	241.7961119062
44	33332	17	234.02399222201
44	35488	18	225.11517311702
44	37662	19	223.35
44	39848	20	223.35
44	42007	21	223.35
44	44166	22	223.35
44	46331	23	223.35
44	48492	24	223.35
44	50649	25	226.56448759196
44	52789	26	242.08407787254
44	54929	27	258.07672740699
44	57079	28	272.83042791792
44	59226	29	288.25700260881
44	61379	30	299.9419612996
44	63526	31	307.48443874323
44	65671	32	317.43688683945
400	7659	5	3.7737876518198
400	9781	6	5.253352695551
400	11892	7	7.400676950095
400	14025	8	7.6781922426142
400	16158	9	11.260936256414
400	18290	10	0.973
400	20429	11	0.973
400	22572	12	5.9970431823719
400	24727	13	2.5532698247009
400	26879	14	0.973
400	29027	15	0.973
400	31177	16	1.4542056728062
400	33332	17	6.425028982231
400	35488	18	0.973
400	37662	19	3.7673760892665
400	39848	20	0.973
400	42007	21	3.5268085217343
400	44166	22	0.973
400	46331	23	2.3966362489681
400	48492	24	0.973
400	50649	25	0.973
400	52789	26	4.907232855099
400	54929	27	6.545827049544
400	57079	28	6.2213097118199
400	59226	29	8.5062748862691
400	61379	30	6.9052703008541
400	63526	31	1.076819376289
400	65671	32	2.4384060927242
400	67800	33	1.7729072110612
399	7659	5	1.4656252268236
399	9781	6	1.8215848414926
399	11892	7	2.2171429459471
399	14025	8	1.9157469786936
399	16158	9	2.5139609878184
399	18290	10	-0.58546932584397
399	20429	11	-0.31194368489087
399	22572	12	1.0465903849574
399	24727	13	0.10190904904157
399	26879	14	-0.4441038752906
399	29027	15	-0.53940424970351
399	31177	16	-0.17562700719573
399	33332	17	1.1532719331793
399	35488	18	-0.38589530461468
399	37662	19	0.42919928540941
399	39848	20	-0.65225825915113
399	42007	21	0.3791240936378
399	44166	22	-0.85702510385308
399	46331	23	0.095086808119179
399	48492	24	-4.3155614450962
399	50649	25	-4.5
399	52789	26	1.9115864618216
399	54929	27	2.1338738595601
399	57079	28	1.6503413632512
399	59226	29	2.0533005590551
399	61379	30	1.3661962905931
399	63526	31	-0.28821370191872
399	65671	32	0.10289216374513
399	67800	33	-0.086677247122861
244	7659	5	6.5700623978162
244	9781	6	8.3916472393088
244	11892	7	10.608790185256
244	14025	8	12.52453716395
244	16158	9	15.038498151768
244	18290	10	14.453028825924
244	20429	11	14.141085141033
244	22572	12	15.187675525991
244	24727	13	15.289584575032
244	26879	14	14.845480699742
244	29027	15	14.306076450038
244	31177	16	14.130449442842
244	33332	17	15.283721376022
244	35488	18	14.897826071407
244	37662	19	15.327025356816
244	39848	20	14.674767097665
244	42007	21	15.053891191303
244	44166	22	14.19686608745
244	46331	23	14.291952895569
244	48492	24	9.9763914504729
244	50649	25	5.4763914504729
244	52789	26	7.3879779122945
244	54929	27	9.5218517718546
244	57079	28	11.172193135106
244	59226	29	13.225493694161
244	61379	30	14.591689984754
244	63526	31	14.303476282835
244	65671	32	14.40636844658
244	67800	33	14.319691199457
133	7659	5	598.8824210797
133	9781	6	590.49077384039
133	11892	7	579.88198365513
133	14025	8	567.35744649118
133	16158	9	552.31894833941
133	18290	10	537.86591951349
133	20429	11	523.72483437246
133	22572	12	508.53715884647
133	24727	13	493.24757427143
133	26879	14	478.40209357169
133	29027	15	464.09601712166
133	31177	16	449.96556767881
133	33332	17	434.68184630279
133	35488	18	423.40003900825
133	37662	19	423.35
133	39848	20	423.35
133	42007	21	423.35
133	44166	22	423.35
133	46331	23	423.35
133	48492	24	423.35
133	50649	25	423.35
133	52789	26	425.26838826796
133	54929	27	434.48309498251
133	57079	28	445.65528811762
133	59226	29	458.88078181178
133	61379	30	473.47247179653
133	63526	31	487.77594807937
133	65671	32	502.18231652595
133	67800	33	516.50200772541
132	7659	5	726.65
132	9781	6	726.65
132	11892	7	726.65
132	14025	8	726.65
132	16158	9	726.65
132	18290	10	726.65
132	20429	11	726.65
132	22572	12	726.65
132	24727	13	726.65
132	26879	14	726.65
132	29027	15	726.65
132	31177	16	726.65
132	33332	17	726.65
132	35488	18	720.60027305777
132	37662	19	705.27699487457
132	39848	20	690.6022277769
132	42007	21	675.5483365856
132	44166	22	661.35147049815
132	46331	23	647.05951760258
132	48492	24	637.08312615211
132	50649	25	631.60673470164
132	52789	26	624.75896703922
132	54929	27	623.35
132	57079	28	623.35
132	59226	29	623.35
132	61379	30	623.35
132	63526	31	623.35
132	65671	32	623.35
132	67800	33	623.35
434	7659	5	3.9667870009554
434	9781	6	5.4014964715535
434	11892	7	5.3451898018323
434	14025	8	7.3634107852433
434	16158	9	6.9008829901091
434	18290	10	9.9353527044173
434	20429	11	1.4534296312873
434	22572	12	2.3110015061599
434	24727	13	4.3502378910926
434	26879	14	0.973
434	29027	15	0.973
434	31177	16	4.925044184297
434	33332	17	3.0148001859934
434	35488	18	1.5564119555459
434	37662	19	2.5810110405469
434	39848	20	0.973
434	42007	21	0.973
434	44166	22	0.973
434	46331	23	0.973
434	48492	24	0.973
434	50649	25	0.973
434	52789	26	3.9341888649166
434	54929	27	4.5940735808061
434	57079	28	5.9254808963346
434	59226	29	7.1514522478329
434	61379	30	9.9971120804816
434	63526	31	8.1614202757849
434	65671	32	1.6139908804847
434	67800	33	1.5282060401843
433	7659	5	1.5024545326829
433	9781	6	1.8164076185087
433	11892	7	1.4846706941957
433	14025	8	1.8916518694023
433	16158	9	1.4985727415653
433	18290	10	2.049248764175
433	20429	11	-0.1990741884309
433	22572	12	0.030540745728649
433	24727	13	0.54185868413188
433	26879	14	-0.44925994549412
433	29027	15	-0.60270367639605
433	31177	16	0.71618221513927
433	33332	17	0.20140812217724
433	35488	18	-0.1765012285905
433	37662	19	0.091093285405076
433	39848	20	-0.76519479001872
433	42007	21	-1.1693935926441
433	44166	22	-1.9792266231899
433	46331	23	-3.5795404312923
433	48492	24	-1.0417964668518
433	50649	25	-2.6346232338198
433	52789	26	1.6545461049769
433	54929	27	1.6110171044245
433	57079	28	1.8233072356554
433	59226	29	1.9075080946786
433	61379	30	2.3640267206589
433	63526	31	1.5873443667535
433	65671	32	-0.15538558217231
433	67800	33	-0.17513959156349
261	7659	5	6.8885528039187
261	9781	6	8.7049604224274
261	11892	7	10.189631116623
261	14025	8	12.081282986025
261	16158	9	13.579855727591
261	18290	10	15.629104491766
261	20429	11	15.430030303335
261	22572	12	15.460571049063
261	24727	13	16.002429733195
261	26879	14	15.553169787701
261	29027	15	14.950466111305
261	31177	16	15.666648326444
261	33332	17	15.868056448622
261	35488	18	15.691555220031
261	37662	19	15.782648505436
261	39848	20	15.017453715417
261	42007	21	13.848060122773
261	44166	22	11.868833499583
261	46331	23	8.2892930682912
261	48492	24	7.2474966014394
261	50649	25	4.6128733676196
261	52789	26	6.2674194725965
261	54929	27	7.878436577021
261	57079	28	9.7017438126764
261	59226	29	11.609251907355
261	61379	30	13.973278628014
261	63526	31	15.560622994767
261	65671	32	15.405237412595
261	67800	33	15.230097821032
167	7659	5	52.727037967858
167	9781	6	61.431998390285
167	11892	7	71.621629506908
167	14025	8	83.702912492934
167	16158	9	97.282768220524
167	18290	10	112.91187271229
167	20429	11	128.34190301562
167	22572	12	143.80247406469
167	24727	13	159.80490379788
167	26879	14	175.35807358558
167	29027	15	190.30853969689
167	31177	16	205.97518802333
167	33332	17	221.79747251643
167	35488	18	223.35
167	37662	19	223.35
167	39848	20	223.35
167	42007	21	223.35
167	44166	22	223.35
167	46331	23	223.35
167	48492	24	223.35
167	50649	25	223.35
167	52789	26	220.52860531499
167	54929	27	212.65268537784
167	57079	28	202.95094156516
167	59226	29	191.3416896578
167	61379	30	177.36841102979
167	63526	31	161.80778803502
167	65671	32	146.40255062243
167	67800	33	131.1724528014
166	7659	5	523.35
166	9781	6	523.35
166	11892	7	523.35
166	14025	8	523.35
166	16158	9	523.35
166	18290	10	523.35
166	20429	11	523.35
166	22572	12	523.35
166	24727	13	523.35
[...]
346	67800	33	1.8574214492116
346	69904	34	2.5299266413548
346	71967	35	0.973
346	74032	36	1.6514959157345
346	76091	37	3.1867991197426
346	78134	38	0.973
346	80143	39	2.7497646426559
346	82091	40	2.1929283136044
346	84041	41	0.973
346	85995	42	0.973
346	87953	43	2.7963698932197
346	89906	44	2.7654458570632
346	91832	45	0.973
346	93737	46	2.704554818528
346	95588	47	0.973
346	97445	48	3.655811892403
346	99290	49	0.973
346	101091	50	2.2691587280396
346	102869	51	0.973
346	104642	52	1.659271364771
346	106396	53	3.9444642566053
346	108130	54	1.6647177318576
346	109839	55	0.973
346	111537	56	1.5174744668639
346	113221	57	2.5815973927667
346	114833	58	0.973
346	116452	59	2.0183495960263
346	118039	60	0.973
346	119582	61	2.228512329409
346	121079	62	1.3033251368367
346	122557	63	1.8716397488643
346	124009	64	0.973
346	125412	65	2.1127694687033
346	126816	66	1.5814245597735
346	128198	67	3.1750633095557
346	129534	68	0.973
346	130799	69	2.7699746503914
346	132022	70	2.6112616255208
346	133210	71	1.4280991370841
346	134367	72	0.973
346	135476	73	0.973
346	136565	74	0.973
346	137611	75	3.8557095464814
346	138636	76	5.02569805443
346	139637	77	6.4179835833031
346	140607	78	1.8898471615334
346	141553	79	0.973
346	142483	80	1.2585440336463
346	143416	81	1.3272891005554
346	144325	82	1.3073346216891
346	145217	83	0.973
346	146084	84	3.7608991837863
346	146948	85	0.973
346	147795	86	1.9234481805644
346	148534	87	0.973
346	149246	88	2.3463425577605
346	149933	89	2.0317486919327
346	150598	90	0.973
346	151227	91	2.0961365498342
346	151858	92	3.0327738102532
346	152465	93	0.973
346	153052	94	3.9133060792012
346	153637	95	0.973
346	154200	96	2.9006686556909
346	154761	97	0.973
346	155300	98	3.638698047042
346	155815	99	0.973
346	156310	100	1.5546997379772
346	156784	101	1.3975359296493
346	157232	102	3.4678405184397
346	157680	103	0.973
346	158126	104	1.9928930280815
346	158572	105	1.6543782890538
346	158996	106	1.6408222458311
346	159397	107	2.3059052746188
346	159798	108	0.973
346	160177	109	2.881148078317
346	160558	110	0.973
346	160897	111	2.0624606132374
346	161236	112	1.8901963084611
346	161553	113	1.9263274464784
346	161827	114	2.6641414587234
346	162061	115	0.973
346	162270	116	1.3305863096668
346	162479	117	4.5684416890904
346	162666	118	0.973
346	162853	119	3.490892654658
346	163018	120	2.0880129782313
346	163183	121	1.8049148557698
346	163347	122	0.973
346	163508	123	1.6037392647933
346	163669	124	0.973
346	163830	125	4.3224529537147
346	163991	126	0.973
346	164130	127	0.973
346	164269	128	3.102946974092
346	164408	129	0.973
346	164547	130	0.973
346	164666	131	2.2076077555766
346	164785	132	0.973
346	164904	133	1.9706338098571
346	165023	134	2.3365967774192
346	165142	135	0.973
346	165261	136	4.0047548731214
346	165380	137	0.973
346	165470	138	1.6975231943374
346	165560	139	0.973
346	165650	140	2.3395633061793
346	165720	141	3.0883462111745
346	165790	142	1.5109271023412
346	165860	143	0.973
346	165930	144	0.973
346	165980	145	2.8612761743577
346	166030	146	2.2357326787269
346	166080	147	0.973
346	166130	148	0.973
346	166180	149	2.8301605062849
346	166230	150	2.2607383184225
346	166280	151	0.973
346	166330	152	1.5691913712532
346	166380	153	4.2030826697259
346	166430	154	0.973
346	166480	155	1.9507631560693
346	166530	156	0.973
345	7659	5	1.5243068370502
345	9781	6	1.9781072258716
345	11892	7	1.3801794685701
345	14025	8	0.11289672695566
345	16158	9	-0.42117595605086
345	18290	10	-0.68364187742118
345	20429	11	0.63737457506359
345	22572	12	-3.5511800487444
345	24727	13	1.8032114607748
345	26879	14	2.2177941237494
345	29027	15	-1.0959814676316
345	31177	16	0.10665655201301
345	33332	17	0.5155774963554
345	35488	18	0.39939821716398
345	37662	19	-0.15145928713027
345	39848	20	0.23456951170228
345	42007	21	-0.0028725460637364
345	44166	22	-0.024403746775352
345	46331	23	-1.062419603928
345	48492	24	1.0664169415599
345	50649	25	-1.1303431068081
345	52789	26	-0.039635112532414
345	54929	27	0.86345408563502
345	57079	28	-0.29108422093559
345	59226	29	0.45348259799648
345	61379	30	-0.17011347755324
345	63526	31	-0.11273740415927
345	65671	32	-0.097145056677983
345	67800	33	0.07624357228633
345	69904	34	0.33640633649193
345	71967	35	-0.61468246611767
345	74032	36	-0.0015093759633587
345	76091	37	0.60422750501893
345	78134	38	-0.87330591478385
345	80143	39	0.45801086330321
345	82091	40	0.21075705846306
345	84041	41	-0.43059563133866
345	85995	42	-0.31553074847907
345	87953	43	0.48207244747318
345	89906	44	0.43538272634614
345	91832	45	-0.49292767178267
345	93737	46	0.4160931603983
345	95588	47	-0.56551071857102
345	97445	48	0.78325041441713
345	99290	49	-0.6237589472672
345	101091	50	0.24605147093535
345	102869	51	-0.49902705701534
345	104642	52	0.0069699632702402
345	106396	53	0.89624668126926
345	108130	54	-0.018026491464115
345	109839	55	-0.86970435525291
345	111537	56	-0.054130893340336
345	113221	57	0.38711798919831
345	114833	58	-0.54798449361697
345	116452	59	0.16670804063324
345	118039	60	-0.28899862973485
345	119582	61	0.26110360997263
345	121079	62	-0.14592248019762
345	122557	63	0.10495130829513
345	124009	64	-0.19090732687619
345	125412	65	0.21102332500741
345	126816	66	-0.023927217326127
345	128198	67	0.62264566812664
345	129534	68	-0.38298208655324
345	130799	69	0.44874502050225
345	132022	70	0.35872966668103
345	133210	71	-0.11201123467181
345	134367	72	-0.91096053260844
345	135476	73	-1.0858738319081
345	136565	74	-3.2140646822401
345	137611	75	1.516659704526
345	138636	76	1.7302687171381
345	139637	77	1.915260263923
345	140607	78	0.073644252284431
345	141553	79	-0.25213792265859
345	142483	80	-0.17498573940247
345	143416	81	-0.14364076820202
345	144325	82	-0.14973320753779
345	145217	83	-0.33866225956008
345	146084	84	0.85161547996104
345	146948	85	-0.46369415062945
345	147795	86	0.11039741025306
345	148534	87	-0.21646345660556
345	149246	88	0.28643519151956
345	149933	89	0.14639636967331
345	150598	90	-0.7471080065472
345	151227	91	0.20118957189843
345	151858	92	0.56249573712703
345	152465	93	-0.58948814321775
345	153052	94	0.89239241040777
345	153637	95	-0.44009001557715
345	154200	96	0.48001433294267
345	154761	97	-0.80163470946718
345	155300	98	0.77950091981329
345	155815	99	-0.96690781279467
345	156310	100	-0.034431850607508
345	156784	101	-0.10251888383645
345	157232	102	0.74747594990767
345	157680	103	-0.60019526991528
345	158126	104	0.15183046553284
345	158572	105	0.0035468477290124
345	158996	106	-0.0023110338021066
345	159397	107	0.27214887090959
345	159798	108	-0.21813363698311
345	160177	109	0.4940540067153
345	160558	110	-0.69513544987421
345	160897	111	0.18050841542427
345	161236	112	0.10106542948633
345	161553	113	0.11178011773154
345	161827	114	0.39745690829586
345	162061	115	-0.86165216749068
345	162270	116	-0.13189059679862
345	162479	117	1.1544459928526
345	162666	118	-0.90804302012548
345	162853	119	0.7373012188822
345	163018	120	0.1545680972049
345	163183	121	0.038820389215836
345	163347	122	-0.486888155411
345	163508	123	-0.027748500322923
345	163669	124	-0.57116407358553
345	163830	125	1.0561502191704
345	163991	126	-0.25667444961146
345	164130	127	-0.47881574651692
345	164269	128	0.57763773151673
345	164408	129	-0.28271704062354
345	164547	130	-0.28378347582184
345	164666	131	0.22868286832236
345	164785	132	-0.45151598539669
345	164904	133	0.14236686232034
345	165023	134	0.28486814172939
345	165142	135	-0.44727372953203
345	165261	136	0.93217479363084
345	165380	137	-0.62367764655501
345	165470	138	0.017194710928017
345	165560	139	-0.42756036368664
345	165650	140	0.30156656911131
345	165720	141	0.57473228233866
345	165790	142	-0.072466117935255
345	165860	143	-0.20522702792659
345	165930	144	-0.21557192979381
345	165980	145	0.48219299728516
345	166030	146	0.21328509070445
345	166080	147	-0.37752787217032
345	166130	148	-0.67351813795976
345	166180	149	0.49678384831641
345	166230	150	0.24041142475326
345	166280	151	-0.72454533954151
345	166330	152	-0.026202308805658
345	166380	153	1.0133884208975
345	166430	154	-0.20939754352439
345	166480	155	0.10478725340217
345	166530	156	-0.22188470158726
217	7659	5	6.8707008739701
217	9781	6	8.8488080998417
217	11892	7	10.228987568412
217	14025	8	10.341884295367
217	16158	9	9.9207083393166
217	18290	10	9.2370664618954
217	20429	11	9.874441036959
217	22572	12	6.3232609882146
217	24727	13	8.1264724489894
217	26879	14	10.344266572739
217	29027	15	9.2482851051071
217	31177	16	9.3549416571201
217	33332	17	9.8705191534755
217	35488	18	10.26991737064
217	37662	19	10.118458083509
217	39848	20	10.353027595212
217	42007	21	10.350155049148
217	44166	22	10.325751302372
217	46331	23	9.2633316984445
217	48492	24	10.329748640004
217	50649	25	9.1994055331962
217	52789	26	9.1597704206638
217	54929	27	10.023224506299
217	57079	28	9.7321402853632
217	59226	29	10.18562288336
217	61379	30	10.015509405806
217	63526	31	9.9027720016472
217	65671	32	9.8056269449692
217	67800	33	9.8818705172555
217	69904	34	10.218276853747
217	71967	35	9.6035943876298
217	74032	36	9.6020850116664
217	76091	37	10.206312516685
217	78134	38	9.3330066019015
217	80143	39	9.7910174652047
217	82091	40	10.001774523668
217	84041	41	9.5711788923291
217	85995	42	9.2556481438501
217	87953	43	9.7377205913232
217	89906	44	10.173103317669
217	91832	45	9.6801756458867
217	93737	46	10.096268806285
217	95588	47	9.530758087714
217	97445	48	10.314008502131
217	99290	49	9.6902495548639
217	101091	50	9.9363010257993
217	102869	51	9.4372739687839
217	104642	52	9.4442439320542
217	106396	53	10.340490613323
217	108130	54	10.322464121859
217	109839	55	9.4527597666064
217	111537	56	9.3986288732661
217	113221	57	9.7857468624644
217	114833	58	9.2377623688474
217	116452	59	9.4044704094806
217	118039	60	9.1154717797458
217	119582	61	9.3765753897184
217	121079	62	9.2306529095208
217	122557	63	9.3356042178159
217	124009	64	9.1446968909397
217	125412	65	9.3557202159472
217	126816	66	9.331792998621
217	128198	67	9.9544386667477
217	129534	68	9.5714565801944
217	130799	69	10.020201600697
217	132022	70	10.378931267378
217	133210	71	10.266920032706
217	134367	72	9.3559595000975
217	135476	73	8.2700856681893
217	136565	74	5.0560209859492
217	137611	75	6.5726806904751
217	138636	76	8.3029494076132
217	139637	77	10.218209671536
217	140607	78	10.291853923821
217	141553	79	10.039716001162
217	142483	80	9.8647302617596
217	143416	81	9.7210894935576
217	144325	82	9.5713562860198
217	145217	83	9.2326940264597
217	146084	84	10.084309506421
217	146948	85	9.6206153557913
217	147795	86	9.7310127660444
217	148534	87	9.5145493094388
217	149246	88	9.8009845009584
217	149933	89	9.9473808706317
217	150598	90	9.2002728640845
217	151227	91	9.4014624359829
217	151858	92	9.9639581731099
217	152465	93	9.3744700298922
217	153052	94	10.2668624403
217	153637	95	9.8267724247228
217	154200	96	10.306786757665
217	154761	97	9.5051520481983
217	155300	98	10.284652968012
217	155815	99	9.3177451552169
217	156310	100	9.2833133046094
217	156784	101	9.1807944207729
217	157232	102	9.9282703706806
217	157680	103	9.3280751007653
217	158126	104	9.4799055662982
217	158572	105	9.4834524140272
217	158996	106	9.4811413802251
217	159397	107	9.7532902511347
217	159798	108	9.5351566141516
217	160177	109	10.029210620867
217	160558	110	9.3340751709927
217	160897	111	9.5145835864169
217	161236	112	9.6156490159033
217	161553	113	9.7274291336348
217	161827	114	10.124886041931
217	162061	115	9.26323387444
217	162270	116	9.1313432776414
217	162479	117	10.285789270494
217	162666	118	9.3777462503684
217	162853	119	10.115047469251
217	163018	120	10.269615566456
217	163183	121	10.308435955671
217	163347	122	9.8215478002604
217	163508	123	9.7937992999375
217	163669	124	9.2226352263519
217	163830	125	10.278785445522
217	163991	126	10.022110995911
217	164130	127	9.5432952493939
217	164269	128	10.120932980911
217	164408	129	9.8382159402871
217	164547	130	9.5544324644653
217	164666	131	9.7831153327876
217	164785	132	9.331599347391
217	164904	133	9.4739662097113
217	165023	134	9.7588343514407
217	165142	135	9.3115606219087
217	165261	136	10.243735415539
217	165380	137	9.6200577689845
217	165470	138	9.6372524799125
217	165560	139	9.2096921162259
217	165650	140	9.5112586853372
217	165720	141	10.085990967676
217	165790	142	10.013524849741
217	165860	143	9.808297821814
217	165930	144	9.5927258920202
217	165980	145	10.074918889305
217	166030	146	10.28820398001
217	166080	147	9.9106761078395
217	166130	148	9.2371579698797
217	166180	149	9.7339418181961
217	166230	150	9.9743532429494
217	166280	151	9.2498079034079
217	166330	152	9.2236055946022
217	166380	153	10.2369940155
217	166430	154	10.027596471975
217	166480	155	10.132383725378
217	166530	156	9.9104990237903
79	7659	5	623.35
79	9781	6	623.35
79	11892	7	623.35
79	14025	8	623.35
79	16158	9	623.35
79	18290	10	623.35
79	20429	11	623.35
79	22572	12	623.35
79	24727	13	620.52130325001
79	26879	14	610.17966956908
79	29027	15	600.93138446397
79	31177	16	591.57644280685
79	33332	17	581.70592365338
79	35488	18	571.43600628274
79	37662	19	561.31754819923
79	39848	20	550.96452060401
79	42007	21	540.61436555487
79	44166	22	530.28861425249
79	46331	23	521.02528255405
79	48492	24	510.69553391405
79	50649	25	501.49612838085
79	52789	26	492.33635796019
79	54929	27	482.31313345389
79	57079	28	472.58099316852
79	59226	29	462.39537028516
79	61379	30	452.37986087936
79	63526	31	442.47708887771
79	65671	32	432.67146193274
79	67800	33	422.78959141549
79	69904	34	412.57131456174
79	71967	35	402.96772017411
79	74032	36	393.36563516244
79	76091	37	383.15932264576
79	78134	38	373.82631604386
79	80143	39	364.03529857865
79	82091	40	354.03352405498
79	84041	41	344.46234516265
79	85995	42	335.2066970188
79	87953	43	325.46897642748
79	89906	44	315.29587310981
79	91832	45	305.61569746392
79	93737	46	295.51942865764
79	95588	47	285.98867056993
79	97445	48	275.67466206779
79	99290	49	265.98441251293
79	101091	50	256.04811148713
79	102869	51	246.61083751835
79	104642	52	237.16659358629
79	106396	53	226.82610297297
79	108130	54	216.50363885111
79	109839	55	207.0508790845
79	111537	56	197.65225021124
79	113221	57	187.86650334877
79	114833	58	178.62874097993
79	116452	59	169.22427057045
79	118039	60	160.1087987907
79	119582	61	150.73222340098
79	121079	62	141.50157049146
79	122557	63	132.16596627364
79	124009	64	123.0212693827
79	125412	65	113.66554916676
79	126816	66	104.33375616814
79	128198	67	94.379317501389
79	129534	68	84.807860921194
79	130799	69	74.787659320498
79	132022	70	64.40872805312
79	133210	71	54.141808020414
79	134367	72	44.785848520317
79	135476	73	36.515762852127
79	136565	74	31.459741866178
79	137611	75	26.668964212234
79	138636	76	26.65
79	139637	77	26.65
79	140607	78	26.65
79	141553	79	26.65
79	142483	80	26.65
79	143416	81	26.65
79	144325	82	26.65
79	145217	83	26.65
79	146084	84	26.65
79	146948	85	26.65
79	147795	86	26.65
79	148534	87	26.65
79	149246	88	26.65
79	149933	89	26.65
79	150598	90	26.65
79	151227	91	26.65
79	151858	92	26.65
79	152465	93	26.65
79	153052	94	26.65
79	153637	95	26.65
79	154200	96	26.65
79	154761	97	26.65
79	155300	98	26.65
79	155815	99	26.65
79	156310	100	26.65
79	156784	101	26.65
79	157232	102	26.65
79	157680	103	26.65
79	158126	104	26.65
79	158572	105	26.65
79	158996	106	26.65
79	159397	107	26.65
79	159798	108	26.65
79	160177	109	26.65
79	160558	110	26.65
79	160897	111	26.65
79	161236	112	26.65
79	161553	113	26.65
79	161827	114	26.65
79	162061	115	26.65
79	162270	116	26.65
79	162479	117	26.65
79	162666	118	26.65
79	162853	119	26.65
79	163018	120	26.65
79	163183	121	26.65
79	163347	122	26.65
79	163508	123	26.65
79	163669	124	26.65
79	163830	125	26.65
79	163991	126	26.65
79	164130	127	26.65
79	164269	128	26.65
79	164408	129	26.65
79	164547	130	26.65
79	164666	131	26.65
79	164785	132	26.65
79	164904	133	26.65
79	165023	134	26.65
79	165142	135	26.65
79	165261	136	26.65
79	165380	137	26.65
79	165470	138	26.65
79	165560	139	26.65
79	165650	140	26.65
79	165720	141	26.65
79	165790	142	26.65
79	165860	143	26.65
79	165930	144	26.65
79	165980	145	26.65
79	166030	146	26.65
79	166080	147	26.65
79	166130	148	26.65
79	166180	149	26.65
79	166230	150	26.65
79	166280	151	26.65
79	166330	152	26.65
79	166380	153	26.65
79	166430	154	26.65
79	166480	155	26.65
79	166530	156	26.65
78	7659	5	197.92556538081
78	9781	6	189.07675728097
78	11892	7	178.84776971256
78	14025	8	168.50588541719
78	16158	9	158.58517707788
78	18290	10	149.34811061598
78	20429	11	139.47366957902
78	22572	12	133.15040859081
78	24727	13	126.68790265993
78	26879	14	126.65
78	29027	15	126.65
78	31177	16	126.65
78	33332	17	126.65
78	35488	18	126.65
78	37662	19	126.65
78	39848	20	126.65
78	42007	21	126.65
78	44166	22	126.65
78	46331	23	126.65
78	48492	24	126.65
78	50649	25	126.65
78	52789	26	126.65
78	54929	27	126.65
78	57079	28	126.65
78	59226	29	126.65
78	61379	30	126.65
78	63526	31	126.65
78	65671	32	126.65
78	67800	33	126.65
78	69904	34	126.65
78	71967	35	126.65
78	74032	36	126.65
78	76091	37	126.65
78	78134	38	126.65
78	80143	39	126.65
78	82091	40	126.65
78	84041	41	126.65
78	85995	42	126.65
78	87953	43	126.65
78	89906	44	126.65
78	91832	45	126.65
78	93737	46	126.65
78	95588	47	126.65
78	97445	48	126.65
78	99290	49	126.65
78	101091	50	126.65
78	102869	51	126.65
78	104642	52	126.65
78	106396	53	126.65
78	108130	54	126.65
78	109839	55	126.65
78	111537	56	126.65
78	113221	57	126.65
78	114833	58	126.65
78	116452	59	126.65
78	118039	60	126.65
78	119582	61	126.65
78	121079	62	126.65
78	122557	63	126.65
78	124009	64	126.65
78	125412	65	126.65
78	126816	66	126.65
78	128198	67	126.65
78	129534	68	126.65
78	130799	69	126.65
78	132022	70	126.65
78	133210	71	126.65
78	134367	72	126.65
78	135476	73	126.65
78	136565	74	126.65
78	137611	75	129.61425616506
78	138636	76	137.91588823191
78	139637	77	148.13409790345
78	140607	78	158.42595182727
78	141553	79	168.46566782843
78	142483	80	178.33039809019
78	143416	81	188.05148758375
78	144325	82	197.62284386977
78	145217	83	206.85553789623
78	146084	84	216.93984740265
78	146948	85	226.56046275844
78	147795	86	236.29147552448
78	148534	87	245.80602483392
78	149246	88	255.60700933488
78	149933	89	265.55439020551
78	150598	90	274.7546630696
78	151227	91	284.15612550558
78	151858	92	294.12008367869
78	152465	93	303.49455370858
78	153052	94	313.76141614888
78	153637	95	323.5881885736
78	154200	96	333.89497533127
78	154761	97	343.40012737947
78	155300	98	353.68478034748
78	155815	99	363.0025255027
78	156310	100	372.28583880731
78	156784	101	381.46663322808
78	157232	102	391.39490359876
78	157680	103	400.72297869952
78	158126	104	410.20288426582
78	158572	105	419.68633667985
78	158996	106	429.16747806007
78	159397	107	438.92076831121
78	159798	108	448.45592492536
78	160177	109	458.48513554623
78	160558	110	467.81921071722
78	160897	111	477.33379430364
78	161236	112	486.94944331954
78	161553	113	496.67687245318
78	161827	114	506.80175849511
78	162061	115	516.06499236955
78	162270	116	525.19633564719
78	162479	117	535.48212491768
78	162666	118	544.85987116805
78	162853	119	554.9749186373
78	163018	120	565.24453420376
78	163183	121	575.55297015943
78	163347	122	585.37451795969
78	163508	123	595.16831725963
78	163669	124	604.39095248598
78	163830	125	614.6697379315
78	163991	126	624.69184892741
78	164130	127	634.2351441768
78	164269	128	644.35607715771
78	164408	129	654.194293098
78	164547	130	663.74872556247
78	164666	131	673.53184089525
78	164785	132	682.86344024265
78	164904	133	692.33740645236
78	165023	134	702.0962408038
78	165142	135	711.40780142571
78	165261	136	721.65153684125
78	165380	137	731.27159461023
78	165470	138	740.90884709014
78	165560	139	750.11853920637
78	165650	140	759.62979789171
78	165720	141	769.71578885938
78	165790	142	779.72931370912
78	165860	143	789.53761153094
78	165930	144	799.13033742296
78	165980	145	809.20525631226
78	166030	146	819.49346029227
78	166080	147	829.40413640011
78	166130	148	838.64129436999
78	166180	149	848.37523618819
78	166230	150	858.34958943114
78	166280	151	867.59939733454
78	166330	152	876.82300292915
78	166380	153	887.05999694465
78	166430	154	897.08759341662
78	166480	155	907.219977142
78	166530	156	917.13047616579

