version 2
run plain-0-20250511-09:15:42-2859
attr configname plain
attr datetime 20250511-09:15:42
attr experiment plain
attr inifile omnetpp.ini
attr iterationvars ""
attr iterationvarsf ""
attr measurement ""
attr network Scenario
attr processid 2859
attr repetition 0
attr replication #0
attr resultdir results
attr runnumber 0
attr seedset 0
param *.node[*].numApps 1
param *.node[*].app[0].typename "\"siege.veins_inet.VeinsInetSampleApplication\""
param *.node[*].app[0].interface "\"wlan0\""
param *.node[*].wlan[0].opMode "\"p\""
param *.node[*].wlan[0].radio.typename "\"Ieee80211DimensionalRadio\""
param *.node[*].wlan[0].radio.bandName "\"5.9 GHz\""
param *.node[*].wlan[0].radio.channelNumber 3
param *.node[*].wlan[0].radio.transmitter.power 20mW
param *.node[*].wlan[0].radio.bandwidth "10 MHz"
param *.node[*].wlan[*].radio.antenna.mobility.typename "\"AttachedMobility\""
param *.node[*].wlan[*].radio.antenna.mobility.mobilityModule "\"^.^.^.^.mobility\""
param *.node[*].wlan[*].radio.antenna.mobility.offsetX -2.5m
param *.node[*].wlan[*].radio.antenna.mobility.offsetZ 1.5m
param *.node[*].wlan[*].radio.antenna.mobility.constraintAreaMinX 0m
param *.node[*].wlan[*].radio.antenna.mobility.constraintAreaMaxX 0m
param *.node[*].wlan[*].radio.antenna.mobility.constraintAreaMinY 0m
param *.node[*].wlan[*].radio.antenna.mobility.constraintAreaMaxY 0m
param *.node[*].wlan[*].radio.antenna.mobility.constraintAreaMinZ 0m
param *.node[*].wlan[*].radio.antenna.mobility.constraintAreaMaxZ 0m
param *.node[*].ipv4.configurator.typename "\"HostAutoConfigurator\""
param *.node[*].ipv4.configurator.interfaces "\"wlan0\""
param *.node[*].ipv4.configurator.mcastGroups "\"224.0.0.1\""
param *.node[*].mobility.typename "\"siege.veins_inet.VeinsInetMobility\""
param *.manager.updateInterval 0.1s
param *.manager.host "\"localhost\""
param *.manager.port 9999
param *.manager.autoShutdown true
param *.manager.launchConfig "xmldoc(\"grid3000.launchd.xml\")"
param *.manager.moduleType "\"siege.veins_inet.VeinsInetCar\""
param *.physicalEnvironment.config "xmldoc(\"obstacles.xml\")"
param *.radioMedium.obstacleLoss.typename "\"IdealObstacleLoss\""

vector 0 Scenario.node[0].wlan[0].radio radioMode:vector ETV
attr interpolationmode sample-hold
attr source radioModeChanged
attr title "Radio mode, vector"
vector 1 Scenario.node[0].wlan[0].radio radioChannel:vector ETV
attr interpolationmode sample-hold
attr source radioChannelChanged
attr title "Radio channel, vector"
vector 2 Scenario.node[0].wlan[0].radio receptionState:vector ETV
attr interpolationmode sample-hold
attr source receptionStateChanged
attr title "Radio reception state, vector"
vector 3 Scenario.node[0].wlan[0].mac.dcf.recoveryProcedure contentionWindowChanged:vector ETV
attr interpolationmode sample-hold
attr title "contention window, vector"
vector 4 Scenario.node[1].wlan[0].radio radioMode:vector ETV
attr interpolationmode sample-hold
attr source radioModeChanged
attr title "Radio mode, vector"
vector 5 Scenario.node[1].wlan[0].radio radioChannel:vector ETV
attr interpolationmode sample-hold
attr source radioChannelChanged
attr title "Radio channel, vector"
vector 6 Scenario.node[1].wlan[0].radio receptionState:vector ETV
attr interpolationmode sample-hold
attr source receptionStateChanged
attr title "Radio reception state, vector"
vector 7 Scenario.node[1].wlan[0].mac.dcf.recoveryProcedure contentionWindowChanged:vector ETV
attr interpolationmode sample-hold
attr title "contention window, vector"
vector 8 Scenario.node[2].wlan[0].radio radioMode:vector ETV
attr interpolationmode sample-hold
attr source radioModeChanged
attr title "Radio mode, vector"
vector 9 Scenario.node[2].wlan[0].radio radioChannel:vector ETV
attr interpolationmode sample-hold
attr source radioChannelChanged
attr title "Radio channel, vector"
vector 10 Scenario.node[2].wlan[0].radio receptionState:vector ETV
attr interpolationmode sample-hold
attr source receptionStateChanged
attr title "Radio reception state, vector"
vector 11 Scenario.node[2].wlan[0].mac.dcf.recoveryProcedure contentionWindowChanged:vector ETV
attr interpolationmode sample-hold
attr title "contention window, vector"
vector 12 Scenario.node[3].wlan[0].radio radioMode:vector ETV
attr interpolationmode sample-hold
attr source radioModeChanged
attr title "Radio mode, vector"
vector 13 Scenario.node[3].wlan[0].radio radioChannel:vector ETV
attr interpolationmode sample-hold
attr source radioChannelChanged
attr title "Radio channel, vector"
vector 14 Scenario.node[3].wlan[0].radio receptionState:vector ETV
attr interpolationmode sample-hold
attr source receptionStateChanged
attr title "Radio reception state, vector"
vector 15 Scenario.node[3].wlan[0].mac.dcf.recoveryProcedure contentionWindowChanged:vector ETV
attr interpolationmode sample-hold
attr title "contention window, vector"
vector 16 Scenario.node[4].wlan[0].radio radioMode:vector ETV
attr interpolationmode sample-hold
attr source radioModeChanged
attr title "Radio mode, vector"
vector 17 Scenario.node[4].wlan[0].radio radioChannel:vector ETV
attr interpolationmode sample-hold
attr source radioChannelChanged
attr title "Radio channel, vector"
vector 18 Scenario.node[4].wlan[0].radio receptionState:vector ETV
attr interpolationmode sample-hold
attr source receptionStateChanged
attr title "Radio reception state, vector"
vector 19 Scenario.node[4].wlan[0].mac.dcf.recoveryProcedure contentionWindowChanged:vector ETV
attr interpolationmode sample-hold
attr title "contention window, vector"
vector 20 Scenario.node[5].wlan[0].radio radioMode:vector ETV
attr interpolationmode sample-hold
attr source radioModeChanged
attr title "Radio mode, vector"
vector 21 Scenario.node[5].wlan[0].radio radioChannel:vector ETV
attr interpolationmode sample-hold
attr source radioChannelChanged
attr title "Radio channel, vector"
vector 22 Scenario.node[5].wlan[0].radio receptionState:vector ETV
attr interpolationmode sample-hold
attr source receptionStateChanged
attr title "Radio reception state, vector"
vector 23 Scenario.node[5].wlan[0].mac.dcf.recoveryProcedure contentionWindowChanged:vector ETV
attr interpolationmode sample-hold
attr title "contention window, vector"
vector 24 Scenario.node[6].wlan[0].radio radioMode:vector ETV
attr interpolationmode sample-hold
attr source radioModeChanged
attr title "Radio mode, vector"
vector 25 Scenario.node[6].wlan[0].radio radioChannel:vector ETV
attr interpolationmode sample-hold
attr source radioChannelChanged
attr title "Radio channel, vector"
vector 26 Scenario.node[6].wlan[0].radio receptionState:vector ETV
attr interpolationmode sample-hold
attr source receptionStateChanged
attr title "Radio reception state, vector"
vector 27 Scenario.node[6].wlan[0].mac.dcf.recoveryProcedure contentionWindowChanged:vector ETV
attr interpolationmode sample-hold
attr title "contention window, vector"
vector 28 Scenario.node[7].wlan[0].radio radioMode:vector ETV
attr interpolationmode sample-hold
attr source radioModeChanged
attr title "Radio mode, vector"
vector 29 Scenario.node[7].wlan[0].radio radioChannel:vector ETV
attr interpolationmode sample-hold
attr source radioChannelChanged
attr title "Radio channel, vector"
vector 30 Scenario.node[7].wlan[0].radio receptionState:vector ETV
attr interpolationmode sample-hold
attr source receptionStateChanged
attr title "Radio reception state, vector"
vector 31 Scenario.node[7].wlan[0].mac.dcf.recoveryProcedure contentionWindowChanged:vector ETV
attr interpolationmode sample-hold
attr title "contention window, vector"
vector 32 Scenario.node[8].wlan[0].radio radioMode:vector ETV
attr interpolationmode sample-hold
attr source radioModeChanged
attr title "Radio mode, vector"
vector 33 Scenario.node[8].wlan[0].radio radioChannel:vector ETV
attr interpolationmode sample-hold
attr source radioChannelChanged
attr title "Radio channel, vector"
vector 34 Scenario.node[8].wlan[0].radio receptionState:vector ETV
attr interpolationmode sample-hold
attr source receptionStateChanged
attr title "Radio reception state, vector"
vector 35 Scenario.node[8].wlan[0].mac.dcf.recoveryProcedure contentionWindowChanged:vector ETV
attr interpolationmode sample-hold
attr title "contention window, vector"
vector 36 Scenario.node[9].wlan[0].radio radioMode:vector ETV
attr interpolationmode sample-hold
attr source radioModeChanged
attr title "Radio mode, vector"
vector 37 Scenario.node[9].wlan[0].radio radioChannel:vector ETV
attr interpolationmode sample-hold
attr source radioChannelChanged
attr title "Radio channel, vector"
vector 38 Scenario.node[9].wlan[0].radio receptionState:vector ETV
attr interpolationmode sample-hold
attr source receptionStateChanged
attr title "Radio reception state, vector"
vector 39 Scenario.node[9].wlan[0].mac.dcf.recoveryProcedure contentionWindowChanged:vector ETV
attr interpolationmode sample-hold
attr title "contention window, vector"
vector 40 Scenario.node[10].wlan[0].radio radioMode:vector ETV
attr interpolationmode sample-hold
attr source radioModeChanged
attr title "Radio mode, vector"
vector 41 Scenario.node[10].wlan[0].radio radioChannel:vector ETV
attr interpolationmode sample-hold
attr source radioChannelChanged
attr title "Radio channel, vector"
vector 42 Scenario.node[10].wlan[0].radio receptionState:vector ETV
attr interpolationmode sample-hold
attr source receptionStateChanged
attr title "Radio reception state, vector"
vector 43 Scenario.node[10].wlan[0].mac.dcf.recoveryProcedure contentionWindowChanged:vector ETV
attr interpolationmode sample-hold
attr title "contention window, vector"
vector 44 Scenario.node[11].wlan[0].radio radioMode:vector ETV
attr interpolationmode sample-hold
attr source radioModeChanged
attr title "Radio mode, vector"
vector 45 Scenario.node[11].wlan[0].radio radioChannel:vector ETV
attr interpolationmode sample-hold
attr source radioChannelChanged
attr title "Radio channel, vector"
vector 46 Scenario.node[11].wlan[0].radio receptionState:vector ETV
attr interpolationmode sample-hold
attr source receptionStateChanged
attr title "Radio reception state, vector"
vector 47 Scenario.node[11].wlan[0].mac.dcf.recoveryProcedure contentionWindowChanged:vector ETV
attr interpolationmode sample-hold
attr title "contention window, vector"
vector 48 Scenario.node[12].wlan[0].radio radioMode:vector ETV
attr interpolationmode sample-hold
attr source radioModeChanged
attr title "Radio mode, vector"
vector 49 Scenario.node[12].wlan[0].radio radioChannel:vector ETV
attr interpolationmode sample-hold
attr source radioChannelChanged
attr title "Radio channel, vector"
vector 50 Scenario.node[12].wlan[0].radio receptionState:vector ETV
attr interpolationmode sample-hold
attr source receptionStateChanged
attr title "Radio reception state, vector"
vector 51 Scenario.node[12].wlan[0].mac.dcf.recoveryProcedure contentionWindowChanged:vector ETV
attr interpolationmode sample-hold
attr title "contention window, vector"
vector 52 Scenario.node[13].wlan[0].radio radioMode:vector ETV
attr interpolationmode sample-hold
attr source radioModeChanged
attr title "Radio mode, vector"
vector 53 Scenario.node[13].wlan[0].radio radioChannel:vector ETV
attr interpolationmode sample-hold
attr source radioChannelChanged
attr title "Radio channel, vector"
vector 54 Scenario.node[13].wlan[0].radio receptionState:vector ETV
attr interpolationmode sample-hold
attr source receptionStateChanged
attr title "Radio reception state, vector"
vector 55 Scenario.node[13].wlan[0].mac.dcf.recoveryProcedure contentionWindowChanged:vector ETV
attr interpolationmode sample-hold
attr title "contention window, vector"
vector 56 Scenario.node[14].wlan[0].radio radioMode:vector ETV
attr interpolationmode sample-hold
attr source radioModeChanged
attr title "Radio mode, vector"
vector 57 Scenario.node[14].wlan[0].radio radioChannel:vector ETV
attr interpolationmode sample-hold
attr source radioChannelChanged
attr title "Radio channel, vector"
vector 58 Scenario.node[14].wlan[0].radio receptionState:vector ETV
attr interpolationmode sample-hold
attr source receptionStateChanged
attr title "Radio reception state, vector"
vector 59 Scenario.node[14].wlan[0].mac.dcf.recoveryProcedure contentionWindowChanged:vector ETV
attr interpolationmode sample-hold
attr title "contention window, vector"
vector 60 Scenario.node[15].wlan[0].radio radioMode:vector ETV
attr interpolationmode sample-hold
attr source radioModeChanged
attr title "Radio mode, vector"
vector 61 Scenario.node[15].wlan[0].radio radioChannel:vector ETV
attr interpolationmode sample-hold
attr source radioChannelChanged
attr title "Radio channel, vector"
vector 62 Scenario.node[15].wlan[0].radio receptionState:vector ETV
attr interpolationmode sample-hold
attr source receptionStateChanged
attr title "Radio reception state, vector"
vector 63 Scenario.node[15].wlan[0].mac.dcf.recoveryProcedure contentionWindowChanged:vector ETV
attr interpolationmode sample-hold
attr title "contention window, vector"
vector 64 Scenario.node[16].wlan[0].radio radioMode:vector ETV
attr interpolationmode sample-hold
attr source radioModeChanged
attr title "Radio mode, vector"
vector 65 Scenario.node[16].wlan[0].radio radioChannel:vector ETV
attr interpolationmode sample-hold
attr source radioChannelChanged
attr title "Radio channel, vector"
vector 66 Scenario.node[16].wlan[0].radio receptionState:vector ETV
attr interpolationmode sample-hold
attr source receptionStateChanged
attr title "Radio reception state, vector"
vector 67 Scenario.node[16].wlan[0].mac.dcf.recoveryProcedure contentionWindowChanged:vector ETV
attr interpolationmode sample-hold
attr title "contention window, vector"
vector 68 Scenario.node[17].wlan[0].radio radioMode:vector ETV
attr interpolationmode sample-hold
attr source radioModeChanged
attr title "Radio mode, vector"
vector 69 Scenario.node[17].wlan[0].radio radioChannel:vector ETV
attr interpolationmode sample-hold
attr source radioChannelChanged
attr title "Radio channel, vector"
vector 70 Scenario.node[17].wlan[0].radio receptionState:vector ETV
attr interpolationmode sample-hold
attr source receptionStateChanged
attr title "Radio reception state, vector"
vector 71 Scenario.node[17].wlan[0].mac.dcf.recoveryProcedure contentionWindowChanged:vector ETV
attr interpolationmode sample-hold
attr title "contention window, vector"
vector 72 Scenario.node[18].wlan[0].radio radioMode:vector ETV
attr interpolationmode sample-hold
attr source radioModeChanged
attr title "Radio mode, vector"
vector 73 Scenario.node[18].wlan[0].radio radioChannel:vector ETV
attr interpolationmode sample-hold
attr source radioChannelChanged
attr title "Radio channel, vector"
vector 74 Scenario.node[18].wlan[0].radio receptionState:vector ETV
attr interpolationmode sample-hold
attr source receptionStateChanged
attr title "Radio reception state, vector"
vector 75 Scenario.node[18].wlan[0].mac.dcf.recoveryProcedure contentionWindowChanged:vector ETV
attr interpolationmode sample-hold
attr title "contention window, vector"
vector 76 Scenario.node[19].wlan[0].radio radioMode:vector ETV
attr interpolationmode sample-hold
attr source radioModeChanged
attr title "Radio mode, vector"
vector 77 Scenario.node[19].wlan[0].radio radioChannel:vector ETV
attr interpolationmode sample-hold
attr source radioChannelChanged
attr title "Radio channel, vector"
vector 78 Scenario.node[19].wlan[0].radio receptionState:vector ETV
attr interpolationmode sample-hold
attr source receptionStateChanged
attr title "Radio reception state, vector"
vector 79 Scenario.node[19].wlan[0].mac.dcf.recoveryProcedure contentionWindowChanged:vector ETV
attr interpolationmode sample-hold
attr title "contention window, vector"
vector 80 Scenario.node[0].app[0] packetSent:vector(packetBytes) ETV
attr interpolationmode none
attr source packetSent
attr title "packets sent, vector(packetBytes)"
vector 81 Scenario.node[0].udp packetSent:vector(packetBytes) ETV
attr interpolationmode none
attr source packetSent
attr title "packets sent, vector(packetBytes)"
vector 82 Scenario.node[0].lo[0].lo rcvdPkFromHl:vector(packetBytes) ETV
attr interpolationmode none
attr source packetReceivedFromUpper
attr title "packets received from higher layer, vector(packetBytes)"
vector 83 Scenario.node[0].lo[0].lo passedUpPk:vector(packetBytes) ETV
attr interpolationmode none
attr source packetSentToUpper
attr title "packets passed to higher layer, vector(packetBytes)"
vector 84 Scenario.node[0].wlan[0].mac packetReceivedFromUpper:vector(packetBytes) ETV
attr interpolationmode none
attr title "packets received from upper layer, vector(packetBytes)"
vector 85 Scenario.node[0].wlan[0].mac.dcf.channelAccess.pendingQueue packetPushed:vector(packetBytes) ETV
attr interpolationmode none
attr title "packet pushed, vector(packetBytes)"
vector 86 Scenario.node[0].wlan[0].mac.dcf.channelAccess.pendingQueue queueLength:vector ETV
attr interpolationmode sample-hold
attr source "count(packetPushed) - count(packetPopped) - count(packetRemoved) - count(packetDropped)"
attr title "queue length, vector"
vector 87 Scenario.node[0].wlan[0].mac.dcf.channelAccess.contention backoffPeriodGenerated:vector ETV
attr interpolationmode none
attr title "backoff periods, vector"
vector 88 Scenario.node[0].wlan[0].mac.dcf.channelAccess.contention backoffActive:vector ETV
attr interpolationmode sample-hold
attr source count(backoffStarted)-count(backoffStopped)
attr title "backoff active, vector"
vector 89 Scenario.node[0].udp packetReceived:vector(packetBytes) ETV
attr interpolationmode none
attr source packetReceived
attr title "packets received, vector(packetBytes)"
vector 90 Scenario.node[0].udp passedUpPk:vector(count) ETV
attr interpolationmode none
attr source packetSentToUpper
attr title "packets passed up, vector(count)"
vector 91 Scenario.node[0].app[0] packetReceived:vector(packetBytes) ETV
attr interpolationmode none
attr source packetReceived
attr title "packets received, vector(packetBytes)"
vector 92 Scenario.node[0].app[0] throughput:vector ETV
attr source throughput(packetReceived)
attr title "throughput, vector"
attr unit bps
vector 93 Scenario.node[0].app[0] rcvdPkLifetime:vector ETV
attr interpolationmode none
attr source dataAge(packetReceived)
attr title "received packet lifetime, vector"
attr unit s
vector 94 Scenario.node[0].wlan[0].mac.dcf.channelAccess.pendingQueue packetPopped:vector(packetBytes) ETV
attr interpolationmode none
attr title "packet popped, vector(packetBytes)"
vector 95 Scenario.node[0].wlan[0].mac.dcf.channelAccess.pendingQueue queueingTime:vector ETV
attr interpolationmode none
attr source queueingTime(packetPopped)
attr title "queueing times, vector"
attr unit s
vector 96 Scenario.node[0].wlan[0].mac.dcf.channelAccess.inProgressFrames queueLength:vector ETV
attr interpolationmode sample-hold
attr source "count(packetEnqueued) - count(packetDequeued)"
attr title "queue length, vector"
vector 97 Scenario.node[0].wlan[0].mac.dcf datarateSelected:vector ETV
attr interpolationmode none
attr title "datarates selected, vector"
vector 98 Scenario.node[0].wlan[0].mac packetSentToLower:vector(packetBytes) ETV
attr interpolationmode none
attr title "packets sent to lower layer, vector(packetBytes)"
vector 99 Scenario.node[0].wlan[0].mac.dcf frameSequenceActive:vector ETV
attr interpolationmode sample-hold
attr source count(frameSequenceStarted)-count(frameSequenceFinished)
attr title "frame sequence active, vector"
vector 100 Scenario.node[0].wlan[0].radio transmissionState:vector ETV
attr interpolationmode sample-hold
attr source transmissionStateChanged
attr title "Radio transmission state, vector"
vector 101 Scenario.node[0].wlan[0].mac.dcf packetSentToPeer:vector(packetBytes) ETV
attr interpolationmode none
attr title "packets sent, vector(packetBytes)"
vector 102 Scenario.node[0].wlan[0].mac.dcf packetSentToPeerMulticast:vector(packetBytes) ETV
attr interpolationmode none
attr source ieee80211Multicast(packetSentToPeer)
attr title "packets sent: multicast, vector(packetBytes)"
vector 103 Scenario.node[0].wlan[0].mac.dcf packetSentToPeerWithoutRetry:vector(packetBytes) ETV
attr interpolationmode none
attr source ieee80211NotRetry(packetSentToPeer)
attr title "packets sent: without retry, vector(packetBytes)"
vector 104 Scenario.node[0].wlan[0].mac.dcf.channelAccess.inProgressFrames queueingTime:vector ETV
attr interpolationmode none
attr source queueingTime(packetDequeued)
attr title "queueing times, vector"
vector 105 Scenario.node[16].wlan[0].mac packetReceivedFromLower:vector(packetBytes) ETV
attr interpolationmode none
attr title "packets received from lower layer, vector(packetBytes)"
vector 106 Scenario.node[16].wlan[0].mac.dcf packetReceivedFromPeer:vector(packetBytes) ETV
attr interpolationmode none
attr title "packets received, vector(packetBytes)"
vector 107 Scenario.node[16].wlan[0].mac.dcf packetReceivedFromPeerMulticast:vector(packetBytes) ETV
attr interpolationmode none
attr source ieee80211Multicast(packetReceivedFromPeer)
attr title "packets received: multicast, vector(packetBytes)"
vector 108 Scenario.node[16].wlan[0].mac.dcf packetReceivedFromPeerWithoutRetry:vector(packetBytes) ETV
attr interpolationmode none
attr source ieee80211NotRetry(packetReceivedFromPeer)
attr title "packets received: without retry, vector(packetBytes)"
vector 109 Scenario.node[16].wlan[0].mac packetSentToUpper:vector(packetBytes) ETV
attr interpolationmode none
attr title "packets sent to upper layer, vector(packetBytes)"
vector 110 Scenario.node[16].udp packetReceived:vector(packetBytes) ETV
attr interpolationmode none
attr source packetReceived
attr title "packets received, vector(packetBytes)"
vector 111 Scenario.node[16].udp passedUpPk:vector(count) ETV
attr interpolationmode none
attr source packetSentToUpper
attr title "packets passed up, vector(count)"
vector 112 Scenario.node[16].app[0] packetReceived:vector(packetBytes) ETV
attr interpolationmode none
attr source packetReceived
attr title "packets received, vector(packetBytes)"
vector 113 Scenario.node[16].app[0] throughput:vector ETV
attr source throughput(packetReceived)
attr title "throughput, vector"
attr unit bps
vector 114 Scenario.node[16].app[0] rcvdPkLifetime:vector ETV
attr interpolationmode none
attr source dataAge(packetReceived)
attr title "received packet lifetime, vector"
attr unit s
vector 115 Scenario.node[16].app[0] packetSent:vector(packetBytes) ETV
attr interpolationmode none
attr source packetSent
attr title "packets sent, vector(packetBytes)"
vector 116 Scenario.node[16].udp packetSent:vector(packetBytes) ETV
attr interpolationmode none
attr source packetSent
attr title "packets sent, vector(packetBytes)"
vector 117 Scenario.node[16].lo[0].lo rcvdPkFromHl:vector(packetBytes) ETV
attr interpolationmode none
attr source packetReceivedFromUpper
attr title "packets received from higher layer, vector(packetBytes)"
vector 118 Scenario.node[16].lo[0].lo passedUpPk:vector(packetBytes) ETV
attr interpolationmode none
attr source packetSentToUpper
attr title "packets passed to higher layer, vector(packetBytes)"
vector 119 Scenario.node[16].wlan[0].mac packetReceivedFromUpper:vector(packetBytes) ETV
attr interpolationmode none
attr title "packets received from upper layer, vector(packetBytes)"
vector 120 Scenario.node[16].wlan[0].mac.dcf.channelAccess.pendingQueue packetPushed:vector(packetBytes) ETV
attr interpolationmode none
attr title "packet pushed, vector(packetBytes)"
vector 121 Scenario.node[16].wlan[0].mac.dcf.channelAccess.pendingQueue queueLength:vector ETV
attr interpolationmode sample-hold
attr source "count(packetPushed) - count(packetPopped) - count(packetRemoved) - count(packetDropped)"
attr title "queue length, vector"
vector 122 Scenario.node[16].wlan[0].mac.dcf.channelAccess.contention backoffPeriodGenerated:vector ETV
attr interpolationmode none
attr title "backoff periods, vector"
vector 123 Scenario.node[16].wlan[0].mac.dcf.channelAccess.contention backoffActive:vector ETV
attr interpolationmode sample-hold
attr source count(backoffStarted)-count(backoffStopped)
attr title "backoff active, vector"
vector 124 Scenario.node[16].wlan[0].mac.dcf.channelAccess.pendingQueue packetPopped:vector(packetBytes) ETV
attr interpolationmode none
attr title "packet popped, vector(packetBytes)"
vector 125 Scenario.node[16].wlan[0].mac.dcf.channelAccess.pendingQueue queueingTime:vector ETV
attr interpolationmode none
attr source queueingTime(packetPopped)
attr title "queueing times, vector"
attr unit s
vector 126 Scenario.node[16].wlan[0].mac.dcf.channelAccess.inProgressFrames queueLength:vector ETV
attr interpolationmode sample-hold
attr source "count(packetEnqueued) - count(packetDequeued)"
attr title "queue length, vector"
vector 127 Scenario.node[16].wlan[0].mac.dcf datarateSelected:vector ETV
attr interpolationmode none
attr title "datarates selected, vector"
vector 128 Scenario.node[16].wlan[0].mac packetSentToLower:vector(packetBytes) ETV
attr interpolationmode none
attr title "packets sent to lower layer, vector(packetBytes)"
vector 129 Scenario.node[16].wlan[0].mac.dcf frameSequenceActive:vector ETV
attr interpolationmode sample-hold
attr source count(frameSequenceStarted)-count(frameSequenceFinished)
attr title "frame sequence active, vector"
vector 130 Scenario.node[16].wlan[0].radio transmissionState:vector ETV
attr interpolationmode sample-hold
attr source transmissionStateChanged
attr title "Radio transmission state, vector"
vector 131 Scenario.node[16].wlan[0].mac.dcf packetSentToPeer:vector(packetBytes) ETV
attr interpolationmode none
attr title "packets sent, vector(packetBytes)"
vector 132 Scenario.node[16].wlan[0].mac.dcf packetSentToPeerMulticast:vector(packetBytes) ETV
attr interpolationmode none
attr source ieee80211Multicast(packetSentToPeer)
attr title "packets sent: multicast, vector(packetBytes)"
vector 133 Scenario.node[16].wlan[0].mac.dcf packetSentToPeerWithoutRetry:vector(packetBytes) ETV
attr interpolationmode none
attr source ieee80211NotRetry(packetSentToPeer)
attr title "packets sent: without retry, vector(packetBytes)"
vector 134 Scenario.node[16].wlan[0].mac.dcf.channelAccess.inProgressFrames queueingTime:vector ETV
attr interpolationmode none
attr source queueingTime(packetDequeued)
attr title "queueing times, vector"
vector 135 Scenario.node[0].wlan[0].mac packetReceivedFromLower:vector(packetBytes) ETV
attr interpolationmode none
attr title "packets received from lower layer, vector(packetBytes)"
vector 136 Scenario.node[0].wlan[0].mac.dcf packetReceivedFromPeer:vector(packetBytes) ETV
attr interpolationmode none
attr title "packets received, vector(packetBytes)"
vector 137 Scenario.node[0].wlan[0].mac.dcf packetReceivedFromPeerMulticast:vector(packetBytes) ETV
attr interpolationmode none
attr source ieee80211Multicast(packetReceivedFromPeer)
attr title "packets received: multicast, vector(packetBytes)"
vector 138 Scenario.node[0].wlan[0].mac.dcf packetReceivedFromPeerWithoutRetry:vector(packetBytes) ETV
attr interpolationmode none
attr source ieee80211NotRetry(packetReceivedFromPeer)
attr title "packets received: without retry, vector(packetBytes)"
vector 139 Scenario.node[0].wlan[0].mac packetSentToUpper:vector(packetBytes) ETV
attr interpolationmode none
attr title "packets sent to upper layer, vector(packetBytes)"
vector 140 Scenario.node[20].wlan[0].radio radioMode:vector ETV
attr interpolationmode sample-hold
attr source radioModeChanged
attr title "Radio mode, vector"
vector 141 Scenario.node[20].wlan[0].radio radioChannel:vector ETV
attr interpolationmode sample-hold
attr source radioChannelChanged
attr title "Radio channel, vector"
vector 142 Scenario.node[20].wlan[0].radio receptionState:vector ETV
attr interpolationmode sample-hold
attr source receptionStateChanged
attr title "Radio reception state, vector"
vector 143 Scenario.node[20].wlan[0].mac.dcf.recoveryProcedure contentionWindowChanged:vector ETV
attr interpolationmode sample-hold
attr title "contention window, vector"
vector 144 Scenario.node[21].wlan[0].radio radioMode:vector ETV
attr interpolationmode sample-hold
attr source radioModeChanged
attr title "Radio mode, vector"
vector 145 Scenario.node[21].wlan[0].radio radioChannel:vector ETV
attr interpolationmode sample-hold
attr source radioChannelChanged
attr title "Radio channel, vector"
vector 146 Scenario.node[21].wlan[0].radio receptionState:vector ETV
attr interpolationmode sample-hold
attr source receptionStateChanged
attr title "Radio reception state, vector"
vector 147 Scenario.node[21].wlan[0].mac.dcf.recoveryProcedure contentionWindowChanged:vector ETV
attr interpolationmode sample-hold
attr title "contention window, vector"
vector 148 Scenario.node[22].wlan[0].radio radioMode:vector ETV
attr interpolationmode sample-hold
attr source radioModeChanged
attr title "Radio mode, vector"
vector 149 Scenario.node[22].wlan[0].radio radioChannel:vector ETV
attr interpolationmode sample-hold
attr source radioChannelChanged
attr title "Radio channel, vector"
vector 150 Scenario.node[22].wlan[0].radio receptionState:vector ETV
attr interpolationmode sample-hold
attr source receptionStateChanged
attr title "Radio reception state, vector"
vector 151 Scenario.node[22].wlan[0].mac.dcf.recoveryProcedure contentionWindowChanged:vector ETV
attr interpolationmode sample-hold
attr title "contention window, vector"
vector 152 Scenario.node[23].wlan[0].radio radioMode:vector ETV
attr interpolationmode sample-hold
attr source radioModeChanged
attr title "Radio mode, vector"
vector 153 Scenario.node[23].wlan[0].radio radioChannel:vector ETV
attr interpolationmode sample-hold
attr source radioChannelChanged
attr title "Radio channel, vector"
vector 154 Scenario.node[23].wlan[0].radio receptionState:vector ETV
attr interpolationmode sample-hold
attr source receptionStateChanged
attr title "Radio reception state, vector"
vector 155 Scenario.node[23].wlan[0].mac.dcf.recoveryProcedure contentionWindowChanged:vector ETV
attr interpolationmode sample-hold
attr title "contention window, vector"
vector 156 Scenario.node[24].wlan[0].radio radioMode:vector ETV
attr interpolationmode sample-hold
attr source radioModeChanged
attr title "Radio mode, vector"
vector 157 Scenario.node[24].wlan[0].radio radioChannel:vector ETV
attr interpolationmode sample-hold
attr source radioChannelChanged
attr title "Radio channel, vector"
vector 158 Scenario.node[24].wlan[0].radio receptionState:vector ETV
attr interpolationmode sample-hold
attr source receptionStateChanged
attr title "Radio reception state, vector"
vector 159 Scenario.node[24].wlan[0].mac.dcf.recoveryProcedure contentionWindowChanged:vector ETV
attr interpolationmode sample-hold
attr title "contention window, vector"
vector 160 Scenario.node[25].wlan[0].radio radioMode:vector ETV
attr interpolationmode sample-hold
attr source radioModeChanged
attr title "Radio mode, vector"
vector 161 Scenario.node[25].wlan[0].radio radioChannel:vector ETV
attr interpolationmode sample-hold
attr source radioChannelChanged
attr title "Radio channel, vector"
vector 162 Scenario.node[25].wlan[0].radio receptionState:vector ETV
attr interpolationmode sample-hold
attr source receptionStateChanged
attr title "Radio reception state, vector"
vector 163 Scenario.node[25].wlan[0].mac.dcf.recoveryProcedure contentionWindowChanged:vector ETV
attr interpolationmode sample-hold
attr title "contention window, vector"
vector 164 Scenario.node[26].wlan[0].radio radioMode:vector ETV
attr interpolationmode sample-hold
attr source radioModeChanged
attr title "Radio mode, vector"
vector 165 Scenario.node[26].wlan[0].radio radioChannel:vector ETV
attr interpolationmode sample-hold
attr source radioChannelChanged
attr title "Radio channel, vector"
vector 166 Scenario.node[26].wlan[0].radio receptionState:vector ETV
attr interpolationmode sample-hold
attr source receptionStateChanged
attr title "Radio reception state, vector"
vector 167 Scenario.node[26].wlan[0].mac.dcf.recoveryProcedure contentionWindowChanged:vector ETV
attr interpolationmode sample-hold
attr title "contention window, vector"
vector 168 Scenario.node[27].wlan[0].radio radioMode:vector ETV
attr interpolationmode sample-hold
attr source radioModeChanged
attr title "Radio mode, vector"
vector 169 Scenario.node[27].wlan[0].radio radioChannel:vector ETV
attr interpolationmode sample-hold
attr source radioChannelChanged
attr title "Radio channel, vector"
vector 170 Scenario.node[27].wlan[0].radio receptionState:vector ETV
attr interpolationmode sample-hold
attr source receptionStateChanged
attr title "Radio reception state, vector"
vector 171 Scenario.node[27].wlan[0].mac.dcf.recoveryProcedure contentionWindowChanged:vector ETV
attr interpolationmode sample-hold
attr title "contention window, vector"
vector 172 Scenario.node[28].wlan[0].radio radioMode:vector ETV
attr interpolationmode sample-hold
attr source radioModeChanged
attr title "Radio mode, vector"
vector 173 Scenario.node[28].wlan[0].radio radioChannel:vector ETV
attr interpolationmode sample-hold
attr source radioChannelChanged
attr title "Radio channel, vector"
vector 174 Scenario.node[28].wlan[0].radio receptionState:vector ETV
attr interpolationmode sample-hold
attr source receptionStateChanged
attr title "Radio reception state, vector"
vector 175 Scenario.node[28].wlan[0].mac.dcf.recoveryProcedure contentionWindowChanged:vector ETV
attr interpolationmode sample-hold
attr title "contention window, vector"
vector 176 Scenario.node[29].wlan[0].radio radioMode:vector ETV
attr interpolationmode sample-hold
attr source radioModeChanged
attr title "Radio mode, vector"
vector 177 Scenario.node[29].wlan[0].radio radioChannel:vector ETV
attr interpolationmode sample-hold
attr source radioChannelChanged
attr title "Radio channel, vector"
vector 178 Scenario.node[29].wlan[0].radio receptionState:vector ETV
attr interpolationmode sample-hold
attr source receptionStateChanged
attr title "Radio reception state, vector"
vector 179 Scenario.node[29].wlan[0].mac.dcf.recoveryProcedure contentionWindowChanged:vector ETV
attr interpolationmode sample-hold
attr title "contention window, vector"
vector 180 Scenario.node[30].wlan[0].radio radioMode:vector ETV
attr interpolationmode sample-hold
attr source radioModeChanged
attr title "Radio mode, vector"
vector 181 Scenario.node[30].wlan[0].radio radioChannel:vector ETV
attr interpolationmode sample-hold
attr source radioChannelChanged
attr title "Radio channel, vector"
vector 182 Scenario.node[30].wlan[0].radio receptionState:vector ETV
attr interpolationmode sample-hold
attr source receptionStateChanged
attr title "Radio reception state, vector"
vector 183 Scenario.node[30].wlan[0].mac.dcf.recoveryProcedure contentionWindowChanged:vector ETV
attr interpolationmode sample-hold
attr title "contention window, vector"
vector 184 Scenario.node[31].wlan[0].radio radioMode:vector ETV
attr interpolationmode sample-hold
attr source radioModeChanged
attr title "Radio mode, vector"
vector 185 Scenario.node[31].wlan[0].radio radioChannel:vector ETV
attr interpolationmode sample-hold
attr source radioChannelChanged
attr title "Radio channel, vector"
vector 186 Scenario.node[31].wlan[0].radio receptionState:vector ETV
attr interpolationmode sample-hold
attr source receptionStateChanged
attr title "Radio reception state, vector"
vector 187 Scenario.node[31].wlan[0].mac.dcf.recoveryProcedure contentionWindowChanged:vector ETV
attr interpolationmode sample-hold
attr title "contention window, vector"
vector 188 Scenario.node[32].wlan[0].radio radioMode:vector ETV
attr interpolationmode sample-hold
attr source radioModeChanged
attr title "Radio mode, vector"
vector 189 Scenario.node[32].wlan[0].radio radioChannel:vector ETV
attr interpolationmode sample-hold
attr source radioChannelChanged
attr title "Radio channel, vector"
vector 190 Scenario.node[32].wlan[0].radio receptionState:vector ETV
attr interpolationmode sample-hold
attr source receptionStateChanged
attr title "Radio reception state, vector"
vector 191 Scenario.node[32].wlan[0].mac.dcf.recoveryProcedure contentionWindowChanged:vector ETV
attr interpolationmode sample-hold
attr title "contention window, vector"
vector 192 Scenario.node[33].wlan[0].radio radioMode:vector ETV
attr interpolationmode sample-hold
attr source radioModeChanged
attr title "Radio mode, vector"
vector 193 Scenario.node[33].wlan[0].radio radioChannel:vector ETV
attr interpolationmode sample-hold
attr source radioChannelChanged
attr title "Radio channel, vector"
vector 194 Scenario.node[33].wlan[0].radio receptionState:vector ETV
attr interpolationmode sample-hold
attr source receptionStateChanged
attr title "Radio reception state, vector"
vector 195 Scenario.node[33].wlan[0].mac.dcf.recoveryProcedure contentionWindowChanged:vector ETV
attr interpolationmode sample-hold
attr title "contention window, vector"
vector 196 Scenario.node[34].wlan[0].radio radioMode:vector ETV
attr interpolationmode sample-hold
attr source radioModeChanged
attr title "Radio mode, vector"
vector 197 Scenario.node[34].wlan[0].radio radioChannel:vector ETV
attr interpolationmode sample-hold
attr source radioChannelChanged
attr title "Radio channel, vector"
vector 198 Scenario.node[34].wlan[0].radio receptionState:vector ETV
attr interpolationmode sample-hold
attr source receptionStateChanged
attr title "Radio reception state, vector"
vector 199 Scenario.node[34].wlan[0].mac.dcf.recoveryProcedure contentionWindowChanged:vector ETV
attr interpolationmode sample-hold
attr title "contention window, vector"
vector 200 Scenario.node[35].wlan[0].radio radioMode:vector ETV
attr interpolationmode sample-hold
attr source radioModeChanged
attr title "Radio mode, vector"
vector 201 Scenario.node[35].wlan[0].radio radioChannel:vector ETV
attr interpolationmode sample-hold
attr source radioChannelChanged
attr title "Radio channel, vector"
vector 202 Scenario.node[35].wlan[0].radio receptionState:vector ETV
attr interpolationmode sample-hold
attr source receptionStateChanged
attr title "Radio reception state, vector"
vector 203 Scenario.node[35].wlan[0].mac.dcf.recoveryProcedure contentionWindowChanged:vector ETV
attr interpolationmode sample-hold
attr title "contention window, vector"
vector 204 Scenario.node[36].wlan[0].radio radioMode:vector ETV
attr interpolationmode sample-hold
attr source radioModeChanged
attr title "Radio mode, vector"
vector 205 Scenario.node[36].wlan[0].radio radioChannel:vector ETV
attr interpolationmode sample-hold
attr source radioChannelChanged
attr title "Radio channel, vector"
vector 206 Scenario.node[36].wlan[0].radio receptionState:vector ETV
attr interpolationmode sample-hold
attr source receptionStateChanged
attr title "Radio reception state, vector"
vector 207 Scenario.node[36].wlan[0].mac.dcf.recoveryProcedure contentionWindowChanged:vector ETV
attr interpolationmode sample-hold
attr title "contention window, vector"
vector 208 Scenario.node[37].wlan[0].radio radioMode:vector ETV
attr interpolationmode sample-hold
attr source radioModeChanged
attr title "Radio mode, vector"
vector 209 Scenario.node[37].wlan[0].radio radioChannel:vector ETV
attr interpolationmode sample-hold
attr source radioChannelChanged
attr title "Radio channel, vector"
vector 210 Scenario.node[37].wlan[0].radio receptionState:vector ETV
attr interpolationmode sample-hold
attr source receptionStateChanged
attr title "Radio reception state, vector"
vector 211 Scenario.node[37].wlan[0].mac.dcf.recoveryProcedure contentionWindowChanged:vector ETV
attr interpolationmode sample-hold
attr title "contention window, vector"
vector 212 Scenario.node[38].wlan[0].radio radioMode:vector ETV
attr interpolationmode sample-hold
attr source radioModeChanged
attr title "Radio mode, vector"
vector 213 Scenario.node[38].wlan[0].radio radioChannel:vector ETV
attr interpolationmode sample-hold
attr source radioChannelChanged
attr title "Radio channel, vector"
vector 214 Scenario.node[38].wlan[0].radio receptionState:vector ETV
attr interpolationmode sample-hold
attr source receptionStateChanged
attr title "Radio reception state, vector"
vector 215 Scenario.node[38].wlan[0].mac.dcf.recoveryProcedure contentionWindowChanged:vector ETV
attr interpolationmode sample-hold
attr title "contention window, vector"
vector 216 Scenario.node[39].wlan[0].radio radioMode:vector ETV
attr interpolationmode sample-hold
attr source radioModeChanged
attr title "Radio mode, vector"
vector 217 Scenario.node[39].wlan[0].radio radioChannel:vector ETV
attr interpolationmode sample-hold
attr source radioChannelChanged
attr title "Radio channel, vector"
vector 218 Scenario.node[39].wlan[0].radio receptionState:vector ETV
attr interpolationmode sample-hold
attr source receptionStateChanged
attr title "Radio reception state, vector"
vector 219 Scenario.node[39].wlan[0].mac.dcf.recoveryProcedure contentionWindowChanged:vector ETV
attr interpolationmode sample-hold
attr title "contention window, vector"
vector 220 Scenario.node[40].wlan[0].radio radioMode:vector ETV
attr interpolationmode sample-hold
attr source radioModeChanged
attr title "Radio mode, vector"
vector 221 Scenario.node[40].wlan[0].radio radioChannel:vector ETV
attr interpolationmode sample-hold
attr source radioChannelChanged
attr title "Radio channel, vector"
vector 222 Scenario.node[40].wlan[0].radio receptionState:vector ETV
attr interpolationmode sample-hold
attr source receptionStateChanged
attr title "Radio reception state, vector"
vector 223 Scenario.node[40].wlan[0].mac.dcf.recoveryProcedure contentionWindowChanged:vector ETV
attr interpolationmode sample-hold
attr title "contention window, vector"
vector 224 Scenario.node[41].wlan[0].radio radioMode:vector ETV
attr interpolationmode sample-hold
attr source radioModeChanged
attr title "Radio mode, vector"
vector 225 Scenario.node[41].wlan[0].radio radioChannel:vector ETV
attr interpolationmode sample-hold
attr source radioChannelChanged
attr title "Radio channel, vector"
vector 226 Scenario.node[41].wlan[0].radio receptionState:vector ETV
attr interpolationmode sample-hold
attr source receptionStateChanged
attr title "Radio reception state, vector"
vector 227 Scenario.node[41].wlan[0].mac.dcf.recoveryProcedure contentionWindowChanged:vector ETV
attr interpolationmode sample-hold
attr title "contention window, vector"
vector 228 Scenario.node[42].wlan[0].radio radioMode:vector ETV
attr interpolationmode sample-hold
attr source radioModeChanged
attr title "Radio mode, vector"
vector 229 Scenario.node[42].wlan[0].radio radioChannel:vector ETV
attr interpolationmode sample-hold
attr source radioChannelChanged
attr title "Radio channel, vector"
vector 230 Scenario.node[42].wlan[0].radio receptionState:vector ETV
attr interpolationmode sample-hold
attr source receptionStateChanged
attr title "Radio reception state, vector"
vector 231 Scenario.node[42].wlan[0].mac.dcf.recoveryProcedure contentionWindowChanged:vector ETV
attr interpolationmode sample-hold
attr title "contention window, vector"
vector 232 Scenario.node[43].wlan[0].radio radioMode:vector ETV
attr interpolationmode sample-hold
attr source radioModeChanged
attr title "Radio mode, vector"
vector 233 Scenario.node[43].wlan[0].radio radioChannel:vector ETV
attr interpolationmode sample-hold
attr source radioChannelChanged
attr title "Radio channel, vector"
vector 234 Scenario.node[43].wlan[0].radio receptionState:vector ETV
attr interpolationmode sample-hold
attr source receptionStateChanged
attr title "Radio reception state, vector"
vector 235 Scenario.node[43].wlan[0].mac.dcf.recoveryProcedure contentionWindowChanged:vector ETV
attr interpolationmode sample-hold
attr title "contention window, vector"
vector 236 Scenario.node[44].wlan[0].radio radioMode:vector ETV
attr interpolationmode sample-hold
attr source radioModeChanged
attr title "Radio mode, vector"
vector 237 Scenario.node[44].wlan[0].radio radioChannel:vector ETV
attr interpolationmode sample-hold
attr source radioChannelChanged
attr title "Radio channel, vector"
vector 238 Scenario.node[44].wlan[0].radio receptionState:vector ETV
attr interpolationmode sample-hold
attr source receptionStateChanged
attr title "Radio reception state, vector"
vector 239 Scenario.node[44].wlan[0].mac.dcf.recoveryProcedure contentionWindowChanged:vector ETV
attr interpolationmode sample-hold
attr title "contention window, vector"
vector 240 Scenario.node[45].wlan[0].radio radioMode:vector ETV
attr interpolationmode sample-hold
attr source radioModeChanged
attr title "Radio mode, vector"
vector 241 Scenario.node[45].wlan[0].radio radioChannel:vector ETV
attr interpolationmode sample-hold
attr source radioChannelChanged
attr title "Radio channel, vector"
vector 242 Scenario.node[45].wlan[0].radio receptionState:vector ETV
attr interpolationmode sample-hold
attr source receptionStateChanged
attr title "Radio reception state, vector"
vector 243 Scenario.node[45].wlan[0].mac.dcf.recoveryProcedure contentionWindowChanged:vector ETV
attr interpolationmode sample-hold
attr title "contention window, vector"
vector 244 Scenario.node[46].wlan[0].radio radioMode:vector ETV
attr interpolationmode sample-hold
attr source radioModeChanged
attr title "Radio mode, vector"
vector 245 Scenario.node[46].wlan[0].radio radioChannel:vector ETV
attr interpolationmode sample-hold
attr source radioChannelChanged
attr title "Radio channel, vector"
vector 246 Scenario.node[46].wlan[0].radio receptionState:vector ETV
attr interpolationmode sample-hold
attr source receptionStateChanged
attr title "Radio reception state, vector"
vector 247 Scenario.node[46].wlan[0].mac.dcf.recoveryProcedure contentionWindowChanged:vector ETV
attr interpolationmode sample-hold
attr title "contention window, vector"
vector 248 Scenario.node[47].wlan[0].radio radioMode:vector ETV
attr interpolationmode sample-hold
attr source radioModeChanged
attr title "Radio mode, vector"
vector 249 Scenario.node[47].wlan[0].radio radioChannel:vector ETV
attr interpolationmode sample-hold
attr source radioChannelChanged
attr title "Radio channel, vector"
vector 250 Scenario.node[47].wlan[0].radio receptionState:vector ETV
attr interpolationmode sample-hold
attr source receptionStateChanged
attr title "Radio reception state, vector"
vector 251 Scenario.node[47].wlan[0].mac.dcf.recoveryProcedure contentionWindowChanged:vector ETV
attr interpolationmode sample-hold
attr title "contention window, vector"
vector 252 Scenario.node[48].wlan[0].radio radioMode:vector ETV
attr interpolationmode sample-hold
attr source radioModeChanged
attr title "Radio mode, vector"
vector 253 Scenario.node[48].wlan[0].radio radioChannel:vector ETV
attr interpolationmode sample-hold
attr source radioChannelChanged
attr title "Radio channel, vector"
vector 254 Scenario.node[48].wlan[0].radio receptionState:vector ETV
attr interpolationmode sample-hold
attr source receptionStateChanged
attr title "Radio reception state, vector"
vector 255 Scenario.node[48].wlan[0].mac.dcf.recoveryProcedure contentionWindowChanged:vector ETV
attr interpolationmode sample-hold
attr title "contention window, vector"
vector 256 Scenario.node[49].wlan[0].radio radioMode:vector ETV
attr interpolationmode sample-hold
attr source radioModeChanged
attr title "Radio mode, vector"
vector 257 Scenario.node[49].wlan[0].radio radioChannel:vector ETV
attr interpolationmode sample-hold
attr source radioChannelChanged
attr title "Radio channel, vector"
vector 258 Scenario.node[49].wlan[0].radio receptionState:vector ETV
attr interpolationmode sample-hold
attr source receptionStateChanged
attr title "Radio reception state, vector"
vector 259 Scenario.node[49].wlan[0].mac.dcf.recoveryProcedure contentionWindowChanged:vector ETV
attr interpolationmode sample-hold
attr title "contention window, vector"
vector 260 Scenario.node[50].wlan[0].radio radioMode:vector ETV
attr interpolationmode sample-hold
attr source radioModeChanged
attr title "Radio mode, vector"
vector 261 Scenario.node[50].wlan[0].radio radioChannel:vector ETV
attr interpolationmode sample-hold
attr source radioChannelChanged
attr title "Radio channel, vector"
vector 262 Scenario.node[50].wlan[0].radio receptionState:vector ETV
attr interpolationmode sample-hold
attr source receptionStateChanged
attr title "Radio reception state, vector"
vector 263 Scenario.node[50].wlan[0].mac.dcf.recoveryProcedure contentionWindowChanged:vector ETV
attr interpolationmode sample-hold
attr title "contention window, vector"
vector 264 Scenario.node[51].wlan[0].radio radioMode:vector ETV
attr interpolationmode sample-hold
attr source radioModeChanged
attr title "Radio mode, vector"
vector 265 Scenario.node[51].wlan[0].radio radioChannel:vector ETV
attr interpolationmode sample-hold
attr source radioChannelChanged
attr title "Radio channel, vector"
vector 266 Scenario.node[51].wlan[0].radio receptionState:vector ETV
attr interpolationmode sample-hold
attr source receptionStateChanged
attr title "Radio reception state, vector"
vector 267 Scenario.node[51].wlan[0].mac.dcf.recoveryProcedure contentionWindowChanged:vector ETV
attr interpolationmode sample-hold
attr title "contention window, vector"
vector 268 Scenario.node[52].wlan[0].radio radioMode:vector ETV
attr interpolationmode sample-hold
attr source radioModeChanged
attr title "Radio mode, vector"
vector 269 Scenario.node[52].wlan[0].radio radioChannel:vector ETV
attr interpolationmode sample-hold
attr source radioChannelChanged
attr title "Radio channel, vector"
vector 270 Scenario.node[52].wlan[0].radio receptionState:vector ETV
attr interpolationmode sample-hold
attr source receptionStateChanged
attr title "Radio reception state, vector"
vector 271 Scenario.node[52].wlan[0].mac.dcf.recoveryProcedure contentionWindowChanged:vector ETV
attr interpolationmode sample-hold
attr title "contention window, vector"
vector 272 Scenario.node[53].wlan[0].radio radioMode:vector ETV
attr interpolationmode sample-hold
attr source radioModeChanged
attr title "Radio mode, vector"
vector 273 Scenario.node[53].wlan[0].radio radioChannel:vector ETV
attr interpolationmode sample-hold
attr source radioChannelChanged
attr title "Radio channel, vector"
vector 274 Scenario.node[53].wlan[0].radio receptionState:vector ETV
attr interpolationmode sample-hold
attr source receptionStateChanged
attr title "Radio reception state, vector"
vector 275 Scenario.node[53].wlan[0].mac.dcf.recoveryProcedure contentionWindowChanged:vector ETV
attr interpolationmode sample-hold
attr title "contention window, vector"
vector 276 Scenario.node[54].wlan[0].radio radioMode:vector ETV
attr interpolationmode sample-hold
attr source radioModeChanged
attr title "Radio mode, vector"
vector 277 Scenario.node[54].wlan[0].radio radioChannel:vector ETV
attr interpolationmode sample-hold
attr source radioChannelChanged
attr title "Radio channel, vector"
vector 278 Scenario.node[54].wlan[0].radio receptionState:vector ETV
attr interpolationmode sample-hold
attr source receptionStateChanged
attr title "Radio reception state, vector"
vector 279 Scenario.node[54].wlan[0].mac.dcf.recoveryProcedure contentionWindowChanged:vector ETV
attr interpolationmode sample-hold
attr title "contention window, vector"
vector 280 Scenario.node[55].wlan[0].radio radioMode:vector ETV
attr interpolationmode sample-hold
attr source radioModeChanged
attr title "Radio mode, vector"
vector 281 Scenario.node[55].wlan[0].radio radioChannel:vector ETV
attr interpolationmode sample-hold
attr source radioChannelChanged
attr title "Radio channel, vector"
vector 282 Scenario.node[55].wlan[0].radio receptionState:vector ETV
attr interpolationmode sample-hold
attr source receptionStateChanged
attr title "Radio reception state, vector"
vector 283 Scenario.node[55].wlan[0].mac.dcf.recoveryProcedure contentionWindowChanged:vector ETV
attr interpolationmode sample-hold
attr title "contention window, vector"
vector 284 Scenario.node[56].wlan[0].radio radioMode:vector ETV
attr interpolationmode sample-hold
attr source radioModeChanged
attr title "Radio mode, vector"
vector 285 Scenario.node[56].wlan[0].radio radioChannel:vector ETV
attr interpolationmode sample-hold
attr source radioChannelChanged
attr title "Radio channel, vector"
vector 286 Scenario.node[56].wlan[0].radio receptionState:vector ETV
attr interpolationmode sample-hold
attr source receptionStateChanged
attr title "Radio reception state, vector"
vector 287 Scenario.node[56].wlan[0].mac.dcf.recoveryProcedure contentionWindowChanged:vector ETV
attr interpolationmode sample-hold
attr title "contention window, vector"
vector 288 Scenario.node[57].wlan[0].radio radioMode:vector ETV
attr interpolationmode sample-hold
attr source radioModeChanged
attr title "Radio mode, vector"
vector 289 Scenario.node[57].wlan[0].radio radioChannel:vector ETV
attr interpolationmode sample-hold
attr source radioChannelChanged
attr title "Radio channel, vector"
vector 290 Scenario.node[57].wlan[0].radio receptionState:vector ETV
attr interpolationmode sample-hold
attr source receptionStateChanged
attr title "Radio reception state, vector"
vector 291 Scenario.node[57].wlan[0].mac.dcf.recoveryProcedure contentionWindowChanged:vector ETV
attr interpolationmode sample-hold
attr title "contention window, vector"
vector 292 Scenario.node[58].wlan[0].radio radioMode:vector ETV
attr interpolationmode sample-hold
attr source radioModeChanged
attr title "Radio mode, vector"
vector 293 Scenario.node[58].wlan[0].radio radioChannel:vector ETV
attr interpolationmode sample-hold
attr source radioChannelChanged
attr title "Radio channel, vector"
vector 294 Scenario.node[58].wlan[0].radio receptionState:vector ETV
attr interpolationmode sample-hold
attr source receptionStateChanged
attr title "Radio reception state, vector"
vector 295 Scenario.node[58].wlan[0].mac.dcf.recoveryProcedure contentionWindowChanged:vector ETV
attr interpolationmode sample-hold
attr title "contention window, vector"
vector 296 Scenario.node[59].wlan[0].radio radioMode:vector ETV
attr interpolationmode sample-hold
attr source radioModeChanged
attr title "Radio mode, vector"
vector 297 Scenario.node[59].wlan[0].radio radioChannel:vector ETV
attr interpolationmode sample-hold
attr source radioChannelChanged
attr title "Radio channel, vector"
vector 298 Scenario.node[59].wlan[0].radio receptionState:vector ETV
attr interpolationmode sample-hold
attr source receptionStateChanged
attr title "Radio reception state, vector"
vector 299 Scenario.node[59].wlan[0].mac.dcf.recoveryProcedure contentionWindowChanged:vector ETV
attr interpolationmode sample-hold
attr title "contention window, vector"
vector 300 Scenario.node[1].app[0] throughput:vector ETV
attr source throughput(packetReceived)
attr title "throughput, vector"
attr unit bps
vector 301 Scenario.node[2].app[0] throughput:vector ETV
attr source throughput(packetReceived)
attr title "throughput, vector"
attr unit bps
vector 302 Scenario.node[3].app[0] throughput:vector ETV
attr source throughput(packetReceived)
attr title "throughput, vector"
attr unit bps
vector 303 Scenario.node[4].app[0] throughput:vector ETV
attr source throughput(packetReceived)
attr title "throughput, vector"
attr unit bps
vector 304 Scenario.node[5].app[0] throughput:vector ETV
attr source throughput(packetReceived)
attr title "throughput, vector"
attr unit bps
vector 305 Scenario.node[6].app[0] throughput:vector ETV
attr source throughput(packetReceived)
attr title "throughput, vector"
attr unit bps
vector 306 Scenario.node[7].app[0] throughput:vector ETV
attr source throughput(packetReceived)
attr title "throughput, vector"
attr unit bps
vector 307 Scenario.node[8].app[0] throughput:vector ETV
attr source throughput(packetReceived)
attr title "throughput, vector"
attr unit bps
vector 308 Scenario.node[9].app[0] throughput:vector ETV
attr source throughput(packetReceived)
attr title "throughput, vector"
attr unit bps
vector 309 Scenario.node[10].app[0] throughput:vector ETV
attr source throughput(packetReceived)
attr title "throughput, vector"
attr unit bps
vector 310 Scenario.node[11].app[0] throughput:vector ETV
attr source throughput(packetReceived)
attr title "throughput, vector"
attr unit bps
vector 311 Scenario.node[12].app[0] throughput:vector ETV
attr source throughput(packetReceived)
attr title "throughput, vector"
attr unit bps
vector 312 Scenario.node[13].app[0] throughput:vector ETV
attr source throughput(packetReceived)
attr title "throughput, vector"
attr unit bps
vector 313 Scenario.node[14].app[0] throughput:vector ETV
attr source throughput(packetReceived)
attr title "throughput, vector"
attr unit bps
vector 314 Scenario.node[15].app[0] throughput:vector ETV
attr source throughput(packetReceived)
attr title "throughput, vector"
attr unit bps
vector 315 Scenario.node[17].app[0] throughput:vector ETV
attr source throughput(packetReceived)
attr title "throughput, vector"
attr unit bps
vector 316 Scenario.node[18].app[0] throughput:vector ETV
attr source throughput(packetReceived)
attr title "throughput, vector"
attr unit bps
vector 317 Scenario.node[19].app[0] throughput:vector ETV
attr source throughput(packetReceived)
attr title "throughput, vector"
attr unit bps
vector 318 Scenario.node[20].app[0] throughput:vector ETV
attr source throughput(packetReceived)
attr title "throughput, vector"
attr unit bps
vector 319 Scenario.node[21].app[0] throughput:vector ETV
attr source throughput(packetReceived)
attr title "throughput, vector"
attr unit bps
vector 320 Scenario.node[22].app[0] throughput:vector ETV
attr source throughput(packetReceived)
attr title "throughput, vector"
attr unit bps
vector 321 Scenario.node[23].app[0] throughput:vector ETV
attr source throughput(packetReceived)
attr title "throughput, vector"
attr unit bps
vector 322 Scenario.node[24].app[0] throughput:vector ETV
attr source throughput(packetReceived)
attr title "throughput, vector"
attr unit bps
vector 323 Scenario.node[25].app[0] throughput:vector ETV
attr source throughput(packetReceived)
attr title "throughput, vector"
attr unit bps
vector 324 Scenario.node[26].app[0] throughput:vector ETV
attr source throughput(packetReceived)
attr title "throughput, vector"
attr unit bps
vector 325 Scenario.node[27].app[0] throughput:vector ETV
attr source throughput(packetReceived)
attr title "throughput, vector"
attr unit bps
vector 326 Scenario.node[28].app[0] throughput:vector ETV
attr source throughput(packetReceived)
attr title "throughput, vector"
attr unit bps
vector 327 Scenario.node[29].app[0] throughput:vector ETV
attr source throughput(packetReceived)
attr title "throughput, vector"
attr unit bps
vector 328 Scenario.node[30].app[0] throughput:vector ETV
attr source throughput(packetReceived)
attr title "throughput, vector"
attr unit bps
vector 329 Scenario.node[31].app[0] throughput:vector ETV
attr source throughput(packetReceived)
attr title "throughput, vector"
attr unit bps
vector 330 Scenario.node[32].app[0] throughput:vector ETV
attr source throughput(packetReceived)
attr title "throughput, vector"
attr unit bps
vector 331 Scenario.node[33].app[0] throughput:vector ETV
attr source throughput(packetReceived)
attr title "throughput, vector"
attr unit bps
vector 332 Scenario.node[34].app[0] throughput:vector ETV
attr source throughput(packetReceived)
attr title "throughput, vector"
attr unit bps
vector 333 Scenario.node[35].app[0] throughput:vector ETV
attr source throughput(packetReceived)
attr title "throughput, vector"
attr unit bps
vector 334 Scenario.node[36].app[0] throughput:vector ETV
attr source throughput(packetReceived)
attr title "throughput, vector"
attr unit bps
vector 335 Scenario.node[37].app[0] throughput:vector ETV
attr source throughput(packetReceived)
attr title "throughput, vector"
attr unit bps
vector 336 Scenario.node[38].app[0] throughput:vector ETV
attr source throughput(packetReceived)
attr title "throughput, vector"
attr unit bps
vector 337 Scenario.node[39].app[0] throughput:vector ETV
attr source throughput(packetReceived)
attr title "throughput, vector"
attr unit bps
vector 338 Scenario.node[40].app[0] throughput:vector ETV
attr source throughput(packetReceived)
attr title "throughput, vector"
attr unit bps
vector 339 Scenario.node[41].app[0] throughput:vector ETV
attr source throughput(packetReceived)
attr title "throughput, vector"
attr unit bps
vector 340 Scenario.node[42].app[0] throughput:vector ETV
attr source throughput(packetReceived)
attr title "throughput, vector"
attr unit bps
vector 341 Scenario.node[43].app[0] throughput:vector ETV
attr source throughput(packetReceived)
attr title "throughput, vector"
attr unit bps
vector 342 Scenario.node[44].app[0] throughput:vector ETV
attr source throughput(packetReceived)
attr title "throughput, vector"
attr unit bps
vector 343 Scenario.node[45].app[0] throughput:vector ETV
attr source throughput(packetReceived)
attr title "throughput, vector"
attr unit bps
vector 344 Scenario.node[46].app[0] throughput:vector ETV
attr source throughput(packetReceived)
attr title "throughput, vector"
attr unit bps
vector 345 Scenario.node[47].app[0] throughput:vector ETV
attr source throughput(packetReceived)
attr title "throughput, vector"
attr unit bps
vector 346 Scenario.node[48].app[0] throughput:vector ETV
attr source throughput(packetReceived)
attr title "throughput, vector"
attr unit bps
vector 347 Scenario.node[49].app[0] throughput:vector ETV
attr source throughput(packetReceived)
attr title "throughput, vector"
attr unit bps
vector 348 Scenario.node[50].app[0] throughput:vector ETV
attr source throughput(packetReceived)
attr title "throughput, vector"
attr unit bps
vector 349 Scenario.node[51].app[0] throughput:vector ETV
attr source throughput(packetReceived)
attr title "throughput, vector"
attr unit bps
vector 350 Scenario.node[52].app[0] throughput:vector ETV
attr source throughput(packetReceived)
attr title "throughput, vector"
attr unit bps
vector 351 Scenario.node[53].app[0] throughput:vector ETV
attr source throughput(packetReceived)
attr title "throughput, vector"
attr unit bps
vector 352 Scenario.node[54].app[0] throughput:vector ETV
attr source throughput(packetReceived)
attr title "throughput, vector"
attr unit bps
vector 353 Scenario.node[55].app[0] throughput:vector ETV
attr source throughput(packetReceived)
attr title "throughput, vector"
attr unit bps
vector 354 Scenario.node[56].app[0] throughput:vector ETV
attr source throughput(packetReceived)
attr title "throughput, vector"
attr unit bps
vector 355 Scenario.node[57].app[0] throughput:vector ETV
attr source throughput(packetReceived)
attr title "throughput, vector"
attr unit bps
vector 356 Scenario.node[58].app[0] throughput:vector ETV
attr source throughput(packetReceived)
attr title "throughput, vector"
attr unit bps
vector 357 Scenario.node[59].app[0] throughput:vector ETV
attr source throughput(packetReceived)
attr title "throughput, vector"
attr unit bps
0	2	0.1	0
0	2	0.1	0
0	2	0.1	2
0	281	20	3
0	303	20.000152	2
0	387	20.000604035724	3
0	409	20.000756035724	2
1	2	0.1	3
2	2	0.1	1
2	281	20	0
2	303	20.000152	1
2	340	20.000355035724	3
2	361	20.000507035724	1
2	387	20.000604035724	0
2	409	20.000756035724	1
3	2	0.1	15
4	15	1.1	0
4	15	1.1	0
4	15	1.1	2
5	15	1.1	3
6	15	1.1	1
7	15	1.1	15
8	28	2.1	0
8	28	2.1	0
8	28	2.1	2
9	28	2.1	3
10	28	2.1	1
11	28	2.1	15
12	41	3.1	0
12	41	3.1	0
12	41	3.1	2
13	41	3.1	3
14	41	3.1	1
15	41	3.1	15
16	54	4.1	0
16	54	4.1	0
16	54	4.1	2
17	54	4.1	3
18	54	4.1	1
19	54	4.1	15
20	67	5.1	0
20	67	5.1	0
20	67	5.1	2
21	67	5.1	3
22	67	5.1	1
23	67	5.1	15
24	80	6.1	0
24	80	6.1	0
24	80	6.1	2
25	80	6.1	3
26	80	6.1	1
27	80	6.1	15
28	93	7.1	0
28	93	7.1	0
28	93	7.1	2
29	93	7.1	3
30	93	7.1	1
31	93	7.1	15
32	106	8.1	0
32	106	8.1	0
32	106	8.1	2
33	106	8.1	3
34	106	8.1	1
35	106	8.1	15
36	119	9.1	0
36	119	9.1	0
36	119	9.1	2
37	119	9.1	3
38	119	9.1	1
39	119	9.1	15
40	132	10.1	0
40	132	10.1	0
40	132	10.1	2
41	132	10.1	3
42	132	10.1	1
43	132	10.1	15
44	145	11.1	0
44	145	11.1	0
44	145	11.1	2
45	145	11.1	3
46	145	11.1	1
47	145	11.1	15
48	158	12.1	0
48	158	12.1	0
48	158	12.1	2
49	158	12.1	3
50	158	12.1	1
51	158	12.1	15
52	171	13.1	0
52	171	13.1	0
52	171	13.1	2
53	171	13.1	3
54	171	13.1	1
55	171	13.1	15
56	184	14.1	0
56	184	14.1	0
56	184	14.1	2
57	184	14.1	3
58	184	14.1	1
59	184	14.1	15
60	197	15.1	0
60	197	15.1	0
60	197	15.1	2
61	197	15.1	3
62	197	15.1	1
63	197	15.1	15
64	210	16.1	0
64	210	16.1	0
64	210	16.1	2
64	338	20.000354017862	3
64	360	20.000506017862	2
65	210	16.1	3
66	210	16.1	1
66	283	20.000001017862	3
66	304	20.000153017862	1
66	338	20.000354017862	0
66	360	20.000506017862	1
66	389	20.000605053586	3
66	410	20.000757053586	1
67	210	16.1	15
68	223	17.1	0
68	223	17.1	0
68	223	17.1	2
69	223	17.1	3
70	223	17.1	1
71	223	17.1	15
72	236	18.1	0
72	236	18.1	0
72	236	18.1	2
73	236	18.1	3
74	236	18.1	1
75	236	18.1	15
76	249	19.1	0
76	249	19.1	0
76	249	19.1	2
77	249	19.1	3
78	249	19.1	1
79	249	19.1	15
80	261	20	100
80	270	20	100
81	263	20	108
81	271	20	108
82	265	20	128
82	273	20	128
83	265	20	128
83	273	20	128
84	268	20	130
84	276	20	130
85	268	20	158
85	276	20	158
86	268	20	1
86	276	20	2
86	280	20	1
86	280	20	0
87	268	20	3
87	302	20.000152	14
88	268	20	1
88	279	20	0
88	303	20.000152	1
88	340	20.000355035724	0
88	361	20.000507035724	1
88	385	20.000604035724	0
89	269	20	108
89	277	20	108
89	365	20.000507035724	108
90	269	20	1
90	277	20	2
90	365	20.000507035724	3
91	270	20	100
91	278	20	100
91	366	20.000507035724	100
92	270	0.1	0
92	270	0.2	0
92	270	0.3	0
92	270	0.4	0
92	270	0.5	0
92	270	0.6	0
92	270	0.7	0
92	270	0.8	0
92	270	0.9	0
92	270	1	0
92	270	1.1	0
92	270	1.2	0
92	270	1.3	0
92	270	1.4	0
92	270	1.5	0
92	270	1.6	0
92	270	1.7	0
92	270	1.8	0
92	270	1.9	0
92	270	2	0
92	270	2.1	0
92	270	2.2	0
92	270	2.3	0
92	270	2.4	0
92	270	2.5	0
92	270	2.6	0
92	270	2.7	0
92	270	2.8	0
92	270	2.9	0
92	270	3	0
92	270	3.1	0
92	270	3.2	0
92	270	3.3	0
92	270	3.4	0
92	270	3.5	0
92	270	3.6	0
92	270	3.7	0
92	270	3.8	0
92	270	3.9	0
92	270	4	0
92	270	4.1	0
92	270	4.2	0
92	270	4.3	0
92	270	4.4	0
92	270	4.5	0
92	270	4.6	0
92	270	4.7	0
92	270	4.8	0
92	270	4.9	0
92	270	5	0
92	270	5.1	0
92	270	5.2	0
92	270	5.3	0
92	270	5.4	0
92	270	5.5	0
92	270	5.6	0
92	270	5.7	0
92	270	5.8	0
92	270	5.9	0
92	270	6	0
92	270	6.1	0
92	270	6.2	0
92	270	6.3	0
92	270	6.4	0
92	270	6.5	0
92	270	6.6	0
92	270	6.7	0
92	270	6.8	0
92	270	6.9	0
92	270	7	0
92	270	7.1	0
92	270	7.2	0
92	270	7.3	0
92	270	7.4	0
92	270	7.5	0
92	270	7.6	0
92	270	7.7	0
92	270	7.8	0
92	270	7.9	0
92	270	8	0
92	270	8.1	0
92	270	8.2	0
92	270	8.3	0
92	270	8.4	0
92	270	8.5	0
92	270	8.6	0
92	270	8.7	0
92	270	8.8	0
92	270	8.9	0
92	270	9	0
92	270	9.1	0
92	270	9.2	0
92	270	9.3	0
92	270	9.4	0
92	270	9.5	0
92	270	9.6	0
92	270	9.7	0
92	270	9.8	0
92	270	9.9	0
92	270	10	0
92	270	10.1	0
92	270	10.2	0
92	270	10.3	0
92	270	10.4	0
92	270	10.5	0
92	270	10.6	0
92	270	10.7	0
92	270	10.8	0
92	270	10.9	0
92	270	11	0
92	270	11.1	0
92	270	11.2	0
92	270	11.3	0
92	270	11.4	0
92	270	11.5	0
92	270	11.6	0
92	270	11.7	0
92	270	11.8	0
92	270	11.9	0
92	270	12	0
92	270	12.1	0
92	270	12.2	0
92	270	12.3	0
92	270	12.4	0
92	270	12.5	0
92	270	12.6	0
92	270	12.7	0
92	270	12.8	0
92	270	12.9	0
92	270	13	0
92	270	13.1	0
92	270	13.2	0
92	270	13.3	0
92	270	13.4	0
92	270	13.5	0
92	270	13.6	0
92	270	13.7	0
92	270	13.8	0
92	270	13.9	0
92	270	14	0
92	270	14.1	0
92	270	14.2	0
92	270	14.3	0
92	270	14.4	0
92	270	14.5	0
92	270	14.6	0
92	270	14.7	0
92	270	14.8	0
92	270	14.9	0
92	270	15	0
92	270	15.1	0
92	270	15.2	0
92	270	15.3	0
92	270	15.4	0
92	270	15.5	0
92	270	15.6	0
92	270	15.7	0
92	270	15.8	0
92	270	15.9	0
92	270	16	0
92	270	16.1	0
92	270	16.2	0
92	270	16.3	0
92	270	16.4	0
92	270	16.5	0
92	270	16.6	0
92	270	16.7	0
92	270	16.8	0
92	270	16.9	0
92	270	17	0
92	270	17.1	0
92	270	17.2	0
92	270	17.3	0
92	270	17.4	0
92	270	17.5	0
92	270	17.6	0
92	270	17.7	0
92	270	17.8	0
92	270	17.9	0
92	270	18	0
92	270	18.1	0
92	270	18.2	0
92	270	18.3	0
92	270	18.4	0
92	270	18.5	0
92	270	18.6	0
92	270	18.7	0
92	270	18.8	0
92	270	18.9	0
92	270	19	0
92	270	19.1	0
92	270	19.2	0
92	270	19.3	0
92	270	19.4	0
92	270	19.5	0
92	270	19.6	0
92	270	19.7	0
92	270	19.8	0
92	270	19.9	0
92	270	20	0
92	958	20.1	24000
92	958	20.2	0
92	958	20.3	0
92	958	20.4	0
92	958	20.5	0
92	958	20.6	0
92	958	20.7	0
92	958	20.8	0
92	958	20.9	0
92	958	21	0
92	958	21.1	0
92	958	21.2	0
92	958	21.3	0
92	958	21.4	0
92	958	21.5	0
92	958	21.6	0
92	958	21.7	0
92	958	21.8	0
92	958	21.9	0
92	958	22	0
92	958	22.1	0
92	958	22.2	0
92	958	22.3	0
92	958	22.4	0
92	958	22.5	0
92	958	22.6	0
92	958	22.7	0
92	958	22.8	0
92	958	22.9	0
92	958	23	0
92	958	23.1	0
92	958	23.2	0
92	958	23.3	0
92	958	23.4	0
92	958	23.5	0
92	958	23.6	0
92	958	23.7	0
92	958	23.8	0
92	958	23.9	0
92	958	24	0
92	958	24.1	0
92	958	24.2	0
92	958	24.3	0
92	958	24.4	0
92	958	24.5	0
92	958	24.6	0
92	958	24.7	0
92	958	24.8	0
92	958	24.9	0
92	958	25	0
92	958	25.1	0
92	958	25.2	0
92	958	25.3	0
92	958	25.4	0
92	958	25.5	0
92	958	25.6	0
92	958	25.7	0
92	958	25.8	0
92	958	25.9	0
92	958	26	0
92	958	26.1	0
92	958	26.2	0
92	958	26.3	0
92	958	26.4	0
92	958	26.5	0
92	958	26.6	0
92	958	26.7	0
92	958	26.8	0
92	958	26.9	0
92	958	27	0
92	958	27.1	0
92	958	27.2	0
92	958	27.3	0
92	958	27.4	0
92	958	27.5	0
92	958	27.6	0
92	958	27.7	0
92	958	27.8	0
92	958	27.9	0
92	958	28	0
92	958	28.1	0
92	958	28.2	0
92	958	28.3	0
92	958	28.4	0
92	958	28.5	0
92	958	28.6	0
92	958	28.7	0
92	958	28.8	0
92	958	28.9	0
92	958	29	0
92	958	29.1	0
92	958	29.2	0
92	958	29.3	0
92	958	29.4	0
92	958	29.5	0
92	958	29.6	0
92	958	29.7	0
92	958	29.8	0
92	958	29.9	0
92	958	30	0
92	958	30.1	0
92	958	30.2	0
92	958	30.3	0
92	958	30.4	0
92	958	30.5	0
92	958	30.6	0
92	958	30.7	0
92	958	30.8	0
92	958	30.9	0
92	958	31	0
92	958	31.1	0
92	958	31.2	0
92	958	31.3	0
92	958	31.4	0
92	958	31.5	0
92	958	31.6	0
92	958	31.7	0
92	958	31.8	0
92	958	31.9	0
92	958	32	0
92	958	32.1	0
92	958	32.2	0
92	958	32.3	0
92	958	32.4	0
92	958	32.5	0
92	958	32.6	0
92	958	32.7	0
92	958	32.8	0
92	958	32.9	0
92	958	33	0
92	958	33.1	0
92	958	33.2	0
92	958	33.3	0
92	958	33.4	0
92	958	33.5	0
92	958	33.6	0
92	958	33.7	0
92	958	33.8	0
92	958	33.9	0
92	958	34	0
92	958	34.1	0
92	958	34.2	0
92	958	34.3	0
92	958	34.4	0
92	958	34.5	0
92	958	34.6	0
92	958	34.7	0
92	958	34.8	0
92	958	34.9	0
92	958	35	0
92	958	35.1	0
92	958	35.2	0
92	958	35.3	0
92	958	35.4	0
92	958	35.5	0
92	958	35.6	0
92	958	35.7	0
92	958	35.8	0
92	958	35.9	0
92	958	36	0
92	958	36.1	0
92	958	36.2	0
92	958	36.3	0
92	958	36.4	0
92	958	36.5	0
92	958	36.6	0
92	958	36.7	0
92	958	36.8	0
92	958	36.9	0
92	958	37	0
92	958	37.1	0
92	958	37.2	0
92	958	37.3	0
92	958	37.4	0
92	958	37.5	0
92	958	37.6	0
92	958	37.7	0
92	958	37.8	0
92	958	37.9	0
92	958	38	0
92	958	38.1	0
92	958	38.2	0
92	958	38.3	0
92	958	38.4	0
92	958	38.5	0
92	958	38.6	0
92	958	38.7	0
92	958	38.8	0
92	958	38.9	0
92	958	39	0
92	958	39.1	0
92	958	39.2	0
92	958	39.3	0
92	958	39.4	0
92	958	39.5	0
92	958	39.6	0
92	958	39.7	0
92	958	39.8	0
92	958	39.9	0
92	958	40	0
92	958	40.1	0
92	958	40.2	0
92	958	40.3	0
92	958	40.4	0
92	958	40.5	0
92	958	40.6	0
92	958	40.7	0
92	958	40.8	0
92	958	40.9	0
92	958	41	0
92	958	41.1	0
92	958	41.2	0
92	958	41.3	0
92	958	41.4	0
92	958	41.5	0
92	958	41.6	0
92	958	41.7	0
92	958	41.8	0
92	958	41.9	0
92	958	42	0
92	958	42.1	0
92	958	42.2	0
92	958	42.3	0
92	958	42.4	0
92	958	42.5	0
92	958	42.6	0
92	958	42.7	0
92	958	42.8	0
92	958	42.9	0
92	958	43	0
92	958	43.1	0
92	958	43.2	0
92	958	43.3	0
92	958	43.4	0
92	958	43.5	0
92	958	43.6	0
92	958	43.7	0
92	958	43.8	0
92	958	43.9	0
92	958	44	0
92	958	44.1	0
92	958	44.2	0
92	958	44.3	0
92	958	44.4	0
92	958	44.5	0
92	958	44.6	0
92	958	44.7	0
92	958	44.8	0
92	958	44.9	0
92	958	45	0
92	958	45.1	0
92	958	45.2	0
92	958	45.3	0
92	958	45.4	0
92	958	45.5	0
92	958	45.6	0
92	958	45.7	0
92	958	45.8	0
92	958	45.9	0
92	958	46	0
92	958	46.1	0
92	958	46.2	0
92	958	46.3	0
92	958	46.4	0
92	958	46.5	0
92	958	46.6	0
92	958	46.7	0
92	958	46.8	0
92	958	46.9	0
92	958	47	0
92	958	47.1	0
92	958	47.2	0
92	958	47.3	0
92	958	47.4	0
92	958	47.5	0
92	958	47.6	0
92	958	47.7	0
92	958	47.8	0
92	958	47.9	0
92	958	48	0
92	958	48.1	0
92	958	48.2	0
92	958	48.3	0
92	958	48.4	0
92	958	48.5	0
92	958	48.6	0
92	958	48.7	0
92	958	48.8	0
92	958	48.9	0
92	958	49	0
92	958	49.1	0
92	958	49.2	0
92	958	49.3	0
92	958	49.4	0
92	958	49.5	0
92	958	49.6	0
92	958	49.7	0
92	958	49.8	0
92	958	49.9	0
92	958	50	0
92	958	50.1	0
92	958	50.2	0
92	958	50.3	0
92	958	50.4	0
92	958	50.5	0
92	958	50.6	0
92	958	50.7	0
92	958	50.8	0
92	958	50.9	0
92	958	51	0
92	958	51.1	0
92	958	51.2	0
92	958	51.3	0
92	958	51.4	0
92	958	51.5	0
92	958	51.6	0
92	958	51.7	0
92	958	51.8	0
92	958	51.9	0
92	958	52	0
92	958	52.1	0
92	958	52.2	0
92	958	52.3	0
92	958	52.4	0
92	958	52.5	0
92	958	52.6	0
92	958	52.7	0
92	958	52.8	0
92	958	52.9	0
92	958	53	0
92	958	53.1	0
92	958	53.2	0
92	958	53.3	0
92	958	53.4	0
92	958	53.5	0
92	958	53.6	0
92	958	53.7	0
92	958	53.8	0
92	958	53.9	0
92	958	54	0
92	958	54.1	0
92	958	54.2	0
92	958	54.3	0
92	958	54.4	0
92	958	54.5	0
92	958	54.6	0
92	958	54.7	0
92	958	54.8	0
92	958	54.9	0
92	958	55	0
92	958	55.1	0
92	958	55.2	0
92	958	55.3	0
92	958	55.4	0
92	958	55.5	0
92	958	55.6	0
92	958	55.7	0
92	958	55.8	0
92	958	55.9	0
92	958	56	0
92	958	56.1	0
92	958	56.2	0
92	958	56.3	0
92	958	56.4	0
92	958	56.5	0
92	958	56.6	0
92	958	56.7	0
92	958	56.8	0
92	958	56.9	0
92	958	57	0
92	958	57.1	0
92	958	57.2	0
92	958	57.3	0
92	958	57.4	0
92	958	57.5	0
92	958	57.6	0
92	958	57.7	0
92	958	57.8	0
92	958	57.9	0
92	958	58	0
92	958	58.1	0
92	958	58.2	0
92	958	58.3	0
92	958	58.4	0
92	958	58.5	0
92	958	58.6	0
92	958	58.7	0
92	958	58.8	0
92	958	58.9	0
92	958	59	0
92	958	59.1	0
92	958	59.2	0
92	958	59.3	0
92	958	59.4	0
92	958	59.5	0
92	958	59.6	0
92	958	59.7	0
92	958	59.8	0
92	958	59.9	0
92	958	60	0
93	270	20	0
93	278	20	0
93	366	20.000507035724	0.000507035724
94	280	20	158
94	280	20	158
95	280	20	0
95	280	20	0
96	280	20	1
96	280	20	2
96	302	20.000152	1
96	408	20.000756035724	0
97	280	20	12000000
97	386	20.000604035724	12000000
98	280	20	158
98	386	20.000604035724	158
99	280	20	1
99	302	20.000152	0
99	386	20.000604035724	1
99	408	20.000756035724	0
100	281	20	1
100	282	20	2
100	302	20.000152	1
100	303	20.000152	0
100	387	20.000604035724	1
100	388	20.000604035724	2
100	408	20.000756035724	1
100	409	20.000756035724	0
101	302	20.000152	158
101	408	20.000756035724	158
102	302	20.000152	158
102	408	20.000756035724	158
103	302	20.000152	158
103	408	20.000756035724	158
104	302	20.000152	0.000152
104	408	20.000756035724	0.000756035724
105	305	20.000153017862	158
105	411	20.000757053586	158
106	305	20.000153017862	158
106	411	20.000757053586	158
107	305	20.000153017862	158
107	411	20.000757053586	158
108	305	20.000153017862	158
108	411	20.000757053586	158
109	305	20.000153017862	130
109	411	20.000757053586	130
110	308	20.000153017862	108
110	316	20.000153017862	108
110	414	20.000757053586	108
111	308	20.000153017862	1
111	316	20.000153017862	2
111	414	20.000757053586	3
112	309	20.000153017862	100
112	317	20.000153017862	100
112	415	20.000757053586	100
113	309	0.1	0
113	309	0.2	0
113	309	0.3	0
113	309	0.4	0
113	309	0.5	0
113	309	0.6	0
113	309	0.7	0
113	309	0.8	0
113	309	0.9	0
113	309	1	0
113	309	1.1	0
113	309	1.2	0
113	309	1.3	0
113	309	1.4	0
113	309	1.5	0
113	309	1.6	0
113	309	1.7	0
113	309	1.8	0
113	309	1.9	0
113	309	2	0
113	309	2.1	0
113	309	2.2	0
113	309	2.3	0
113	309	2.4	0
113	309	2.5	0
113	309	2.6	0
113	309	2.7	0
113	309	2.8	0
113	309	2.9	0
113	309	3	0
113	309	3.1	0
113	309	3.2	0
113	309	3.3	0
113	309	3.4	0
113	309	3.5	0
113	309	3.6	0
113	309	3.7	0
113	309	3.8	0
113	309	3.9	0
113	309	4	0
113	309	4.1	0
113	309	4.2	0
113	309	4.3	0
113	309	4.4	0
113	309	4.5	0
113	309	4.6	0
113	309	4.7	0
113	309	4.8	0
113	309	4.9	0
113	309	5	0
113	309	5.1	0
113	309	5.2	0
113	309	5.3	0
113	309	5.4	0
113	309	5.5	0
113	309	5.6	0
113	309	5.7	0
113	309	5.8	0
113	309	5.9	0
113	309	6	0
113	309	6.1	0
113	309	6.2	0
113	309	6.3	0
113	309	6.4	0
113	309	6.5	0
113	309	6.6	0
113	309	6.7	0
113	309	6.8	0
113	309	6.9	0
113	309	7	0
113	309	7.1	0
113	309	7.2	0
113	309	7.3	0
113	309	7.4	0
113	309	7.5	0
113	309	7.6	0
113	309	7.7	0
113	309	7.8	0
113	309	7.9	0
113	309	8	0
113	309	8.1	0
113	309	8.2	0
113	309	8.3	0
113	309	8.4	0
113	309	8.5	0
113	309	8.6	0
113	309	8.7	0
113	309	8.8	0
113	309	8.9	0
113	309	9	0
113	309	9.1	0
113	309	9.2	0
113	309	9.3	0
113	309	9.4	0
113	309	9.5	0
113	309	9.6	0
113	309	9.7	0
113	309	9.8	0
113	309	9.9	0
113	309	10	0
113	309	10.1	0
113	309	10.2	0
113	309	10.3	0
113	309	10.4	0
113	309	10.5	0
113	309	10.6	0
113	309	10.7	0
113	309	10.8	0
113	309	10.9	0
113	309	11	0
113	309	11.1	0
113	309	11.2	0
113	309	11.3	0
113	309	11.4	0
113	309	11.5	0
113	309	11.6	0
113	309	11.7	0
113	309	11.8	0
113	309	11.9	0
113	309	12	0
113	309	12.1	0
113	309	12.2	0
113	309	12.3	0
113	309	12.4	0
113	309	12.5	0
113	309	12.6	0
113	309	12.7	0
113	309	12.8	0
113	309	12.9	0
113	309	13	0
113	309	13.1	0
113	309	13.2	0
113	309	13.3	0
113	309	13.4	0
113	309	13.5	0
113	309	13.6	0
113	309	13.7	0
113	309	13.8	0
113	309	13.9	0
113	309	14	0
113	309	14.1	0
113	309	14.2	0
113	309	14.3	0
113	309	14.4	0
113	309	14.5	0
113	309	14.6	0
113	309	14.7	0
113	309	14.8	0
113	309	14.9	0
113	309	15	0
113	309	15.1	0
113	309	15.2	0
113	309	15.3	0
113	309	15.4	0
113	309	15.5	0
113	309	15.6	0
113	309	15.7	0
113	309	15.8	0
113	309	15.9	0
113	309	16	0
113	309	16.1	0
113	309	16.2	0
113	309	16.3	0
113	309	16.4	0
113	309	16.5	0
113	309	16.6	0
113	309	16.7	0
113	309	16.8	0
113	309	16.9	0
113	309	17	0
113	309	17.1	0
113	309	17.2	0
113	309	17.3	0
113	309	17.4	0
113	309	17.5	0
113	309	17.6	0
113	309	17.7	0
113	309	17.8	0
113	309	17.9	0
113	309	18	0
113	309	18.1	0
113	309	18.2	0
113	309	18.3	0
113	309	18.4	0
113	309	18.5	0
113	309	18.6	0
113	309	18.7	0
113	309	18.8	0
113	309	18.9	0
113	309	19	0
113	309	19.1	0
113	309	19.2	0
113	309	19.3	0
113	309	19.4	0
113	309	19.5	0
113	309	19.6	0
113	309	19.7	0
113	309	19.8	0
113	309	19.9	0
113	309	20	0
113	958	20.1	24000
113	958	20.2	0
113	958	20.3	0
113	958	20.4	0
113	958	20.5	0
113	958	20.6	0
113	958	20.7	0
113	958	20.8	0
113	958	20.9	0
113	958	21	0
113	958	21.1	0
113	958	21.2	0
113	958	21.3	0
113	958	21.4	0
113	958	21.5	0
113	958	21.6	0
113	958	21.7	0
113	958	21.8	0
113	958	21.9	0
113	958	22	0
113	958	22.1	0
113	958	22.2	0
113	958	22.3	0
113	958	22.4	0
113	958	22.5	0
113	958	22.6	0
113	958	22.7	0
113	958	22.8	0
113	958	22.9	0
113	958	23	0
113	958	23.1	0
113	958	23.2	0
113	958	23.3	0
113	958	23.4	0
113	958	23.5	0
113	958	23.6	0
113	958	23.7	0
113	958	23.8	0
113	958	23.9	0
113	958	24	0
113	958	24.1	0
113	958	24.2	0
113	958	24.3	0
113	958	24.4	0
113	958	24.5	0
113	958	24.6	0
113	958	24.7	0
113	958	24.8	0
113	958	24.9	0
113	958	25	0
113	958	25.1	0
113	958	25.2	0
113	958	25.3	0
113	958	25.4	0
113	958	25.5	0
113	958	25.6	0
113	958	25.7	0
113	958	25.8	0
113	958	25.9	0
113	958	26	0
113	958	26.1	0
113	958	26.2	0
113	958	26.3	0
113	958	26.4	0
113	958	26.5	0
113	958	26.6	0
113	958	26.7	0
113	958	26.8	0
113	958	26.9	0
113	958	27	0
113	958	27.1	0
113	958	27.2	0
113	958	27.3	0
113	958	27.4	0
113	958	27.5	0
113	958	27.6	0
113	958	27.7	0
113	958	27.8	0
113	958	27.9	0
113	958	28	0
113	958	28.1	0
113	958	28.2	0
113	958	28.3	0
113	958	28.4	0
113	958	28.5	0
113	958	28.6	0
113	958	28.7	0
113	958	28.8	0
113	958	28.9	0
113	958	29	0
113	958	29.1	0
113	958	29.2	0
113	958	29.3	0
113	958	29.4	0
113	958	29.5	0
113	958	29.6	0
113	958	29.7	0
113	958	29.8	0
113	958	29.9	0
113	958	30	0
113	958	30.1	0
113	958	30.2	0
113	958	30.3	0
113	958	30.4	0
113	958	30.5	0
113	958	30.6	0
113	958	30.7	0
113	958	30.8	0
113	958	30.9	0
113	958	31	0
113	958	31.1	0
113	958	31.2	0
113	958	31.3	0
113	958	31.4	0
113	958	31.5	0
113	958	31.6	0
113	958	31.7	0
113	958	31.8	0
113	958	31.9	0
113	958	32	0
113	958	32.1	0
113	958	32.2	0
113	958	32.3	0
113	958	32.4	0
113	958	32.5	0
113	958	32.6	0
113	958	32.7	0
113	958	32.8	0
113	958	32.9	0
113	958	33	0
113	958	33.1	0
113	958	33.2	0
113	958	33.3	0
113	958	33.4	0
113	958	33.5	0
113	958	33.6	0
113	958	33.7	0
113	958	33.8	0
113	958	33.9	0
113	958	34	0
113	958	34.1	0
113	958	34.2	0
113	958	34.3	0
113	958	34.4	0
113	958	34.5	0
113	958	34.6	0
113	958	34.7	0
113	958	34.8	0
113	958	34.9	0
113	958	35	0
113	958	35.1	0
113	958	35.2	0
113	958	35.3	0
113	958	35.4	0
113	958	35.5	0
113	958	35.6	0
113	958	35.7	0
113	958	35.8	0
[...]
355	958	43.7	0
355	958	43.8	0
355	958	43.9	0
355	958	44	0
355	958	44.1	0
355	958	44.2	0
355	958	44.3	0
355	958	44.4	0
355	958	44.5	0
355	958	44.6	0
355	958	44.7	0
355	958	44.8	0
355	958	44.9	0
355	958	45	0
355	958	45.1	0
355	958	45.2	0
355	958	45.3	0
355	958	45.4	0
355	958	45.5	0
355	958	45.6	0
355	958	45.7	0
355	958	45.8	0
355	958	45.9	0
355	958	46	0
355	958	46.1	0
355	958	46.2	0
355	958	46.3	0
355	958	46.4	0
355	958	46.5	0
355	958	46.6	0
355	958	46.7	0
355	958	46.8	0
355	958	46.9	0
355	958	47	0
355	958	47.1	0
355	958	47.2	0
355	958	47.3	0
355	958	47.4	0
355	958	47.5	0
355	958	47.6	0
355	958	47.7	0
355	958	47.8	0
355	958	47.9	0
355	958	48	0
355	958	48.1	0
355	958	48.2	0
355	958	48.3	0
355	958	48.4	0
355	958	48.5	0
355	958	48.6	0
355	958	48.7	0
355	958	48.8	0
355	958	48.9	0
355	958	49	0
355	958	49.1	0
355	958	49.2	0
355	958	49.3	0
355	958	49.4	0
355	958	49.5	0
355	958	49.6	0
355	958	49.7	0
355	958	49.8	0
355	958	49.9	0
355	958	50	0
355	958	50.1	0
355	958	50.2	0
355	958	50.3	0
355	958	50.4	0
355	958	50.5	0
355	958	50.6	0
355	958	50.7	0
355	958	50.8	0
355	958	50.9	0
355	958	51	0
355	958	51.1	0
355	958	51.2	0
355	958	51.3	0
355	958	51.4	0
355	958	51.5	0
355	958	51.6	0
355	958	51.7	0
355	958	51.8	0
355	958	51.9	0
355	958	52	0
355	958	52.1	0
355	958	52.2	0
355	958	52.3	0
355	958	52.4	0
355	958	52.5	0
355	958	52.6	0
355	958	52.7	0
355	958	52.8	0
355	958	52.9	0
355	958	53	0
355	958	53.1	0
355	958	53.2	0
355	958	53.3	0
355	958	53.4	0
355	958	53.5	0
355	958	53.6	0
355	958	53.7	0
355	958	53.8	0
355	958	53.9	0
355	958	54	0
355	958	54.1	0
355	958	54.2	0
355	958	54.3	0
355	958	54.4	0
355	958	54.5	0
355	958	54.6	0
355	958	54.7	0
355	958	54.8	0
355	958	54.9	0
355	958	55	0
355	958	55.1	0
355	958	55.2	0
355	958	55.3	0
355	958	55.4	0
355	958	55.5	0
355	958	55.6	0
355	958	55.7	0
355	958	55.8	0
355	958	55.9	0
355	958	56	0
355	958	56.1	0
355	958	56.2	0
355	958	56.3	0
355	958	56.4	0
355	958	56.5	0
355	958	56.6	0
355	958	56.7	0
355	958	56.8	0
355	958	56.9	0
355	958	57	0
355	958	57.1	0
355	958	57.2	0
355	958	57.3	0
355	958	57.4	0
355	958	57.5	0
355	958	57.6	0
355	958	57.7	0
355	958	57.8	0
355	958	57.9	0
355	958	58	0
355	958	58.1	0
355	958	58.2	0
355	958	58.3	0
355	958	58.4	0
355	958	58.5	0
355	958	58.6	0
355	958	58.7	0
355	958	58.8	0
355	958	58.9	0
355	958	59	0
355	958	59.1	0
355	958	59.2	0
355	958	59.3	0
355	958	59.4	0
355	958	59.5	0
355	958	59.6	0
355	958	59.7	0
355	958	59.8	0
355	958	59.9	0
355	958	60	0
356	958	0.1	0
356	958	0.2	0
356	958	0.3	0
356	958	0.4	0
356	958	0.5	0
356	958	0.6	0
356	958	0.7	0
356	958	0.8	0
356	958	0.9	0
356	958	1	0
356	958	1.1	0
356	958	1.2	0
356	958	1.3	0
356	958	1.4	0
356	958	1.5	0
356	958	1.6	0
356	958	1.7	0
356	958	1.8	0
356	958	1.9	0
356	958	2	0
356	958	2.1	0
356	958	2.2	0
356	958	2.3	0
356	958	2.4	0
356	958	2.5	0
356	958	2.6	0
356	958	2.7	0
356	958	2.8	0
356	958	2.9	0
356	958	3	0
356	958	3.1	0
356	958	3.2	0
356	958	3.3	0
356	958	3.4	0
356	958	3.5	0
356	958	3.6	0
356	958	3.7	0
356	958	3.8	0
356	958	3.9	0
356	958	4	0
356	958	4.1	0
356	958	4.2	0
356	958	4.3	0
356	958	4.4	0
356	958	4.5	0
356	958	4.6	0
356	958	4.7	0
356	958	4.8	0
356	958	4.9	0
356	958	5	0
356	958	5.1	0
356	958	5.2	0
356	958	5.3	0
356	958	5.4	0
356	958	5.5	0
356	958	5.6	0
356	958	5.7	0
356	958	5.8	0
356	958	5.9	0
356	958	6	0
356	958	6.1	0
356	958	6.2	0
356	958	6.3	0
356	958	6.4	0
356	958	6.5	0
356	958	6.6	0
356	958	6.7	0
356	958	6.8	0
356	958	6.9	0
356	958	7	0
356	958	7.1	0
356	958	7.2	0
356	958	7.3	0
356	958	7.4	0
356	958	7.5	0
356	958	7.6	0
356	958	7.7	0
356	958	7.8	0
356	958	7.9	0
356	958	8	0
356	958	8.1	0
356	958	8.2	0
356	958	8.3	0
356	958	8.4	0
356	958	8.5	0
356	958	8.6	0
356	958	8.7	0
356	958	8.8	0
356	958	8.9	0
356	958	9	0
356	958	9.1	0
356	958	9.2	0
356	958	9.3	0
356	958	9.4	0
356	958	9.5	0
356	958	9.6	0
356	958	9.7	0
356	958	9.8	0
356	958	9.9	0
356	958	10	0
356	958	10.1	0
356	958	10.2	0
356	958	10.3	0
356	958	10.4	0
356	958	10.5	0
356	958	10.6	0
356	958	10.7	0
356	958	10.8	0
356	958	10.9	0
356	958	11	0
356	958	11.1	0
356	958	11.2	0
356	958	11.3	0
356	958	11.4	0
356	958	11.5	0
356	958	11.6	0
356	958	11.7	0
356	958	11.8	0
356	958	11.9	0
356	958	12	0
356	958	12.1	0
356	958	12.2	0
356	958	12.3	0
356	958	12.4	0
356	958	12.5	0
356	958	12.6	0
356	958	12.7	0
356	958	12.8	0
356	958	12.9	0
356	958	13	0
356	958	13.1	0
356	958	13.2	0
356	958	13.3	0
356	958	13.4	0
356	958	13.5	0
356	958	13.6	0
356	958	13.7	0
356	958	13.8	0
356	958	13.9	0
356	958	14	0
356	958	14.1	0
356	958	14.2	0
356	958	14.3	0
356	958	14.4	0
356	958	14.5	0
356	958	14.6	0
356	958	14.7	0
356	958	14.8	0
356	958	14.9	0
356	958	15	0
356	958	15.1	0
356	958	15.2	0
356	958	15.3	0
356	958	15.4	0
356	958	15.5	0
356	958	15.6	0
356	958	15.7	0
356	958	15.8	0
356	958	15.9	0
356	958	16	0
356	958	16.1	0
356	958	16.2	0
356	958	16.3	0
356	958	16.4	0
356	958	16.5	0
356	958	16.6	0
356	958	16.7	0
356	958	16.8	0
356	958	16.9	0
356	958	17	0
356	958	17.1	0
356	958	17.2	0
356	958	17.3	0
356	958	17.4	0
356	958	17.5	0
356	958	17.6	0
356	958	17.7	0
356	958	17.8	0
356	958	17.9	0
356	958	18	0
356	958	18.1	0
356	958	18.2	0
356	958	18.3	0
356	958	18.4	0
356	958	18.5	0
356	958	18.6	0
356	958	18.7	0
356	958	18.8	0
356	958	18.9	0
356	958	19	0
356	958	19.1	0
356	958	19.2	0
356	958	19.3	0
356	958	19.4	0
356	958	19.5	0
356	958	19.6	0
356	958	19.7	0
356	958	19.8	0
356	958	19.9	0
356	958	20	0
356	958	20.1	0
356	958	20.2	0
356	958	20.3	0
356	958	20.4	0
356	958	20.5	0
356	958	20.6	0
356	958	20.7	0
356	958	20.8	0
356	958	20.9	0
356	958	21	0
356	958	21.1	0
356	958	21.2	0
356	958	21.3	0
356	958	21.4	0
356	958	21.5	0
356	958	21.6	0
356	958	21.7	0
356	958	21.8	0
356	958	21.9	0
356	958	22	0
356	958	22.1	0
356	958	22.2	0
356	958	22.3	0
356	958	22.4	0
356	958	22.5	0
356	958	22.6	0
356	958	22.7	0
356	958	22.8	0
356	958	22.9	0
356	958	23	0
356	958	23.1	0
356	958	23.2	0
356	958	23.3	0
356	958	23.4	0
356	958	23.5	0
356	958	23.6	0
356	958	23.7	0
356	958	23.8	0
356	958	23.9	0
356	958	24	0
356	958	24.1	0
356	958	24.2	0
356	958	24.3	0
356	958	24.4	0
356	958	24.5	0
356	958	24.6	0
356	958	24.7	0
356	958	24.8	0
356	958	24.9	0
356	958	25	0
356	958	25.1	0
356	958	25.2	0
356	958	25.3	0
356	958	25.4	0
356	958	25.5	0
356	958	25.6	0
356	958	25.7	0
356	958	25.8	0
356	958	25.9	0
356	958	26	0
356	958	26.1	0
356	958	26.2	0
356	958	26.3	0
356	958	26.4	0
356	958	26.5	0
356	958	26.6	0
356	958	26.7	0
356	958	26.8	0
356	958	26.9	0
356	958	27	0
356	958	27.1	0
356	958	27.2	0
356	958	27.3	0
356	958	27.4	0
356	958	27.5	0
356	958	27.6	0
356	958	27.7	0
356	958	27.8	0
356	958	27.9	0
356	958	28	0
356	958	28.1	0
356	958	28.2	0
356	958	28.3	0
356	958	28.4	0
356	958	28.5	0
356	958	28.6	0
356	958	28.7	0
356	958	28.8	0
356	958	28.9	0
356	958	29	0
356	958	29.1	0
356	958	29.2	0
356	958	29.3	0
356	958	29.4	0
356	958	29.5	0
356	958	29.6	0
356	958	29.7	0
356	958	29.8	0
356	958	29.9	0
356	958	30	0
356	958	30.1	0
356	958	30.2	0
356	958	30.3	0
356	958	30.4	0
356	958	30.5	0
356	958	30.6	0
356	958	30.7	0
356	958	30.8	0
356	958	30.9	0
356	958	31	0
356	958	31.1	0
356	958	31.2	0
356	958	31.3	0
356	958	31.4	0
356	958	31.5	0
356	958	31.6	0
356	958	31.7	0
356	958	31.8	0
356	958	31.9	0
356	958	32	0
356	958	32.1	0
356	958	32.2	0
356	958	32.3	0
356	958	32.4	0
356	958	32.5	0
356	958	32.6	0
356	958	32.7	0
356	958	32.8	0
356	958	32.9	0
356	958	33	0
356	958	33.1	0
356	958	33.2	0
356	958	33.3	0
356	958	33.4	0
356	958	33.5	0
356	958	33.6	0
356	958	33.7	0
356	958	33.8	0
356	958	33.9	0
356	958	34	0
356	958	34.1	0
356	958	34.2	0
356	958	34.3	0
356	958	34.4	0
356	958	34.5	0
356	958	34.6	0
356	958	34.7	0
356	958	34.8	0
356	958	34.9	0
356	958	35	0
356	958	35.1	0
356	958	35.2	0
356	958	35.3	0
356	958	35.4	0
356	958	35.5	0
356	958	35.6	0
356	958	35.7	0
356	958	35.8	0
356	958	35.9	0
356	958	36	0
356	958	36.1	0
356	958	36.2	0
356	958	36.3	0
356	958	36.4	0
356	958	36.5	0
356	958	36.6	0
356	958	36.7	0
356	958	36.8	0
356	958	36.9	0
356	958	37	0
356	958	37.1	0
356	958	37.2	0
356	958	37.3	0
356	958	37.4	0
356	958	37.5	0
356	958	37.6	0
356	958	37.7	0
356	958	37.8	0
356	958	37.9	0
356	958	38	0
356	958	38.1	0
356	958	38.2	0
356	958	38.3	0
356	958	38.4	0
356	958	38.5	0
356	958	38.6	0
356	958	38.7	0
356	958	38.8	0
356	958	38.9	0
356	958	39	0
356	958	39.1	0
356	958	39.2	0
356	958	39.3	0
356	958	39.4	0
356	958	39.5	0
356	958	39.6	0
356	958	39.7	0
356	958	39.8	0
356	958	39.9	0
356	958	40	0
356	958	40.1	0
356	958	40.2	0
356	958	40.3	0
356	958	40.4	0
356	958	40.5	0
356	958	40.6	0
356	958	40.7	0
356	958	40.8	0
356	958	40.9	0
356	958	41	0
356	958	41.1	0
356	958	41.2	0
356	958	41.3	0
356	958	41.4	0
356	958	41.5	0
356	958	41.6	0
356	958	41.7	0
356	958	41.8	0
356	958	41.9	0
356	958	42	0
356	958	42.1	0
356	958	42.2	0
356	958	42.3	0
356	958	42.4	0
356	958	42.5	0
356	958	42.6	0
356	958	42.7	0
356	958	42.8	0
356	958	42.9	0
356	958	43	0
356	958	43.1	0
356	958	43.2	0
356	958	43.3	0
356	958	43.4	0
356	958	43.5	0
356	958	43.6	0
356	958	43.7	0
356	958	43.8	0
356	958	43.9	0
356	958	44	0
356	958	44.1	0
356	958	44.2	0
356	958	44.3	0
356	958	44.4	0
356	958	44.5	0
356	958	44.6	0
356	958	44.7	0
356	958	44.8	0
356	958	44.9	0
356	958	45	0
356	958	45.1	0
356	958	45.2	0
356	958	45.3	0
356	958	45.4	0
356	958	45.5	0
356	958	45.6	0
356	958	45.7	0
356	958	45.8	0
356	958	45.9	0
356	958	46	0
356	958	46.1	0
356	958	46.2	0
356	958	46.3	0
356	958	46.4	0
356	958	46.5	0
356	958	46.6	0
356	958	46.7	0
356	958	46.8	0
356	958	46.9	0
356	958	47	0
356	958	47.1	0
356	958	47.2	0
356	958	47.3	0
356	958	47.4	0
356	958	47.5	0
356	958	47.6	0
356	958	47.7	0
356	958	47.8	0
356	958	47.9	0
356	958	48	0
356	958	48.1	0
356	958	48.2	0
356	958	48.3	0
356	958	48.4	0
356	958	48.5	0
356	958	48.6	0
356	958	48.7	0
356	958	48.8	0
356	958	48.9	0
356	958	49	0
356	958	49.1	0
356	958	49.2	0
356	958	49.3	0
356	958	49.4	0
356	958	49.5	0
356	958	49.6	0
356	958	49.7	0
356	958	49.8	0
356	958	49.9	0
356	958	50	0
356	958	50.1	0
356	958	50.2	0
356	958	50.3	0
356	958	50.4	0
356	958	50.5	0
356	958	50.6	0
356	958	50.7	0
356	958	50.8	0
356	958	50.9	0
356	958	51	0
356	958	51.1	0
356	958	51.2	0
356	958	51.3	0
356	958	51.4	0
356	958	51.5	0
356	958	51.6	0
356	958	51.7	0
356	958	51.8	0
356	958	51.9	0
356	958	52	0
356	958	52.1	0
356	958	52.2	0
356	958	52.3	0
356	958	52.4	0
356	958	52.5	0
356	958	52.6	0
356	958	52.7	0
356	958	52.8	0
356	958	52.9	0
356	958	53	0
356	958	53.1	0
356	958	53.2	0
356	958	53.3	0
356	958	53.4	0
356	958	53.5	0
356	958	53.6	0
356	958	53.7	0
356	958	53.8	0
356	958	53.9	0
356	958	54	0
356	958	54.1	0
356	958	54.2	0
356	958	54.3	0
356	958	54.4	0
356	958	54.5	0
356	958	54.6	0
356	958	54.7	0
356	958	54.8	0
356	958	54.9	0
356	958	55	0
356	958	55.1	0
356	958	55.2	0
356	958	55.3	0
356	958	55.4	0
356	958	55.5	0
356	958	55.6	0
356	958	55.7	0
356	958	55.8	0
356	958	55.9	0
356	958	56	0
356	958	56.1	0
356	958	56.2	0
356	958	56.3	0
356	958	56.4	0
356	958	56.5	0
356	958	56.6	0
356	958	56.7	0
356	958	56.8	0
356	958	56.9	0
356	958	57	0
356	958	57.1	0
356	958	57.2	0
356	958	57.3	0
356	958	57.4	0
356	958	57.5	0
356	958	57.6	0
356	958	57.7	0
356	958	57.8	0
356	958	57.9	0
356	958	58	0
356	958	58.1	0
356	958	58.2	0
356	958	58.3	0
356	958	58.4	0
356	958	58.5	0
356	958	58.6	0
356	958	58.7	0
356	958	58.8	0
356	958	58.9	0
356	958	59	0
356	958	59.1	0
356	958	59.2	0
356	958	59.3	0
356	958	59.4	0
356	958	59.5	0
356	958	59.6	0
356	958	59.7	0
356	958	59.8	0
356	958	59.9	0
356	958	60	0
357	958	0.1	0
357	958	0.2	0
357	958	0.3	0
357	958	0.4	0
357	958	0.5	0
357	958	0.6	0
357	958	0.7	0
357	958	0.8	0
357	958	0.9	0
357	958	1	0
357	958	1.1	0
357	958	1.2	0
357	958	1.3	0
357	958	1.4	0
357	958	1.5	0
357	958	1.6	0
357	958	1.7	0
357	958	1.8	0
357	958	1.9	0
357	958	2	0
357	958	2.1	0
357	958	2.2	0
357	958	2.3	0
357	958	2.4	0
357	958	2.5	0
357	958	2.6	0
357	958	2.7	0
357	958	2.8	0
357	958	2.9	0
357	958	3	0
357	958	3.1	0
357	958	3.2	0
357	958	3.3	0
357	958	3.4	0
357	958	3.5	0
357	958	3.6	0
357	958	3.7	0
357	958	3.8	0
357	958	3.9	0
357	958	4	0
357	958	4.1	0
357	958	4.2	0
357	958	4.3	0
357	958	4.4	0
357	958	4.5	0
357	958	4.6	0
357	958	4.7	0
357	958	4.8	0
357	958	4.9	0
357	958	5	0
357	958	5.1	0
357	958	5.2	0
357	958	5.3	0
357	958	5.4	0
357	958	5.5	0
357	958	5.6	0
357	958	5.7	0
357	958	5.8	0
357	958	5.9	0
357	958	6	0
357	958	6.1	0
357	958	6.2	0
357	958	6.3	0
357	958	6.4	0
357	958	6.5	0
357	958	6.6	0
357	958	6.7	0
357	958	6.8	0
357	958	6.9	0
357	958	7	0
357	958	7.1	0
357	958	7.2	0
357	958	7.3	0
357	958	7.4	0
357	958	7.5	0
357	958	7.6	0
357	958	7.7	0
357	958	7.8	0
357	958	7.9	0
357	958	8	0
357	958	8.1	0
357	958	8.2	0
357	958	8.3	0
357	958	8.4	0
357	958	8.5	0
357	958	8.6	0
357	958	8.7	0
357	958	8.8	0
357	958	8.9	0
357	958	9	0
357	958	9.1	0
357	958	9.2	0
357	958	9.3	0
357	958	9.4	0
357	958	9.5	0
357	958	9.6	0
357	958	9.7	0
357	958	9.8	0
357	958	9.9	0
357	958	10	0
357	958	10.1	0
357	958	10.2	0
357	958	10.3	0
357	958	10.4	0
357	958	10.5	0
357	958	10.6	0
357	958	10.7	0
357	958	10.8	0
357	958	10.9	0
357	958	11	0
357	958	11.1	0
357	958	11.2	0
357	958	11.3	0
357	958	11.4	0
357	958	11.5	0
357	958	11.6	0
357	958	11.7	0
357	958	11.8	0
357	958	11.9	0
357	958	12	0
357	958	12.1	0
357	958	12.2	0
357	958	12.3	0
357	958	12.4	0
357	958	12.5	0
357	958	12.6	0
357	958	12.7	0
357	958	12.8	0
357	958	12.9	0
357	958	13	0
357	958	13.1	0
357	958	13.2	0
357	958	13.3	0
357	958	13.4	0
357	958	13.5	0
357	958	13.6	0
357	958	13.7	0
357	958	13.8	0
357	958	13.9	0
357	958	14	0
357	958	14.1	0
357	958	14.2	0
357	958	14.3	0
357	958	14.4	0
357	958	14.5	0
357	958	14.6	0
357	958	14.7	0
357	958	14.8	0
357	958	14.9	0
357	958	15	0
357	958	15.1	0
357	958	15.2	0
357	958	15.3	0
357	958	15.4	0
357	958	15.5	0
357	958	15.6	0
357	958	15.7	0
357	958	15.8	0
357	958	15.9	0
357	958	16	0
357	958	16.1	0
357	958	16.2	0
357	958	16.3	0
357	958	16.4	0
357	958	16.5	0
357	958	16.6	0
357	958	16.7	0
357	958	16.8	0
357	958	16.9	0
357	958	17	0
357	958	17.1	0
357	958	17.2	0
357	958	17.3	0
357	958	17.4	0
357	958	17.5	0
357	958	17.6	0
357	958	17.7	0
357	958	17.8	0
357	958	17.9	0
357	958	18	0
357	958	18.1	0
357	958	18.2	0
357	958	18.3	0
357	958	18.4	0
357	958	18.5	0
357	958	18.6	0
357	958	18.7	0
357	958	18.8	0
357	958	18.9	0
357	958	19	0
357	958	19.1	0
357	958	19.2	0
357	958	19.3	0
357	958	19.4	0
357	958	19.5	0
357	958	19.6	0
357	958	19.7	0
357	958	19.8	0
357	958	19.9	0
357	958	20	0
357	958	20.1	0
357	958	20.2	0
357	958	20.3	0
357	958	20.4	0
357	958	20.5	0
357	958	20.6	0
357	958	20.7	0
357	958	20.8	0
357	958	20.9	0
357	958	21	0
357	958	21.1	0
357	958	21.2	0
357	958	21.3	0
357	958	21.4	0
357	958	21.5	0
357	958	21.6	0
357	958	21.7	0
357	958	21.8	0
357	958	21.9	0
357	958	22	0
357	958	22.1	0
357	958	22.2	0
357	958	22.3	0
357	958	22.4	0
357	958	22.5	0
357	958	22.6	0
357	958	22.7	0
357	958	22.8	0
357	958	22.9	0
357	958	23	0
357	958	23.1	0
357	958	23.2	0
357	958	23.3	0
357	958	23.4	0
357	958	23.5	0
357	958	23.6	0
357	958	23.7	0
357	958	23.8	0
357	958	23.9	0
357	958	24	0
357	958	24.1	0
357	958	24.2	0
357	958	24.3	0
357	958	24.4	0
357	958	24.5	0
357	958	24.6	0
357	958	24.7	0
357	958	24.8	0
357	958	24.9	0
357	958	25	0
357	958	25.1	0
357	958	25.2	0
357	958	25.3	0
357	958	25.4	0
357	958	25.5	0
357	958	25.6	0
357	958	25.7	0
357	958	25.8	0
357	958	25.9	0
357	958	26	0
357	958	26.1	0
357	958	26.2	0
357	958	26.3	0
357	958	26.4	0
357	958	26.5	0
357	958	26.6	0
357	958	26.7	0
357	958	26.8	0
357	958	26.9	0
357	958	27	0
357	958	27.1	0
357	958	27.2	0
357	958	27.3	0
357	958	27.4	0
357	958	27.5	0
357	958	27.6	0
357	958	27.7	0
357	958	27.8	0
357	958	27.9	0
357	958	28	0
357	958	28.1	0
357	958	28.2	0
357	958	28.3	0
357	958	28.4	0
357	958	28.5	0
357	958	28.6	0
357	958	28.7	0
357	958	28.8	0
357	958	28.9	0
357	958	29	0
357	958	29.1	0
357	958	29.2	0
357	958	29.3	0
357	958	29.4	0
357	958	29.5	0
357	958	29.6	0
357	958	29.7	0
357	958	29.8	0
357	958	29.9	0
357	958	30	0
357	958	30.1	0
357	958	30.2	0
357	958	30.3	0
357	958	30.4	0
357	958	30.5	0
357	958	30.6	0
357	958	30.7	0
357	958	30.8	0
357	958	30.9	0
357	958	31	0
357	958	31.1	0
357	958	31.2	0
357	958	31.3	0
357	958	31.4	0
357	958	31.5	0
357	958	31.6	0
357	958	31.7	0
357	958	31.8	0
357	958	31.9	0
357	958	32	0
357	958	32.1	0
357	958	32.2	0
357	958	32.3	0
357	958	32.4	0
357	958	32.5	0
357	958	32.6	0
357	958	32.7	0
357	958	32.8	0
357	958	32.9	0
357	958	33	0
357	958	33.1	0
357	958	33.2	0
357	958	33.3	0
357	958	33.4	0
357	958	33.5	0
357	958	33.6	0
357	958	33.7	0
357	958	33.8	0
357	958	33.9	0
357	958	34	0
357	958	34.1	0
357	958	34.2	0
357	958	34.3	0
357	958	34.4	0
357	958	34.5	0
357	958	34.6	0
357	958	34.7	0
357	958	34.8	0
357	958	34.9	0
357	958	35	0
357	958	35.1	0
357	958	35.2	0
357	958	35.3	0
357	958	35.4	0
357	958	35.5	0
357	958	35.6	0
357	958	35.7	0
357	958	35.8	0
357	958	35.9	0
357	958	36	0
357	958	36.1	0
357	958	36.2	0
357	958	36.3	0
357	958	36.4	0
357	958	36.5	0
357	958	36.6	0
357	958	36.7	0
357	958	36.8	0
357	958	36.9	0
357	958	37	0
357	958	37.1	0
357	958	37.2	0
357	958	37.3	0
357	958	37.4	0
357	958	37.5	0
357	958	37.6	0
357	958	37.7	0
357	958	37.8	0
357	958	37.9	0
357	958	38	0
357	958	38.1	0
357	958	38.2	0
357	958	38.3	0
357	958	38.4	0
357	958	38.5	0
357	958	38.6	0
357	958	38.7	0
357	958	38.8	0
357	958	38.9	0
357	958	39	0
357	958	39.1	0
357	958	39.2	0
357	958	39.3	0
357	958	39.4	0
357	958	39.5	0
357	958	39.6	0
357	958	39.7	0
357	958	39.8	0
357	958	39.9	0
357	958	40	0
357	958	40.1	0
357	958	40.2	0
357	958	40.3	0
357	958	40.4	0
357	958	40.5	0
357	958	40.6	0
357	958	40.7	0
357	958	40.8	0
357	958	40.9	0
357	958	41	0
357	958	41.1	0
357	958	41.2	0
357	958	41.3	0
357	958	41.4	0
357	958	41.5	0
357	958	41.6	0
357	958	41.7	0
357	958	41.8	0
357	958	41.9	0
357	958	42	0
357	958	42.1	0
357	958	42.2	0
357	958	42.3	0
357	958	42.4	0
357	958	42.5	0
357	958	42.6	0
357	958	42.7	0
357	958	42.8	0
357	958	42.9	0
357	958	43	0
357	958	43.1	0
357	958	43.2	0
357	958	43.3	0
357	958	43.4	0
357	958	43.5	0
357	958	43.6	0
357	958	43.7	0
357	958	43.8	0
357	958	43.9	0
357	958	44	0
357	958	44.1	0
357	958	44.2	0
357	958	44.3	0
357	958	44.4	0
357	958	44.5	0
357	958	44.6	0
357	958	44.7	0
357	958	44.8	0
357	958	44.9	0
357	958	45	0
357	958	45.1	0
357	958	45.2	0
357	958	45.3	0
357	958	45.4	0
357	958	45.5	0
357	958	45.6	0
357	958	45.7	0
357	958	45.8	0
357	958	45.9	0
357	958	46	0
357	958	46.1	0
357	958	46.2	0
357	958	46.3	0
357	958	46.4	0
357	958	46.5	0
357	958	46.6	0
357	958	46.7	0
357	958	46.8	0
357	958	46.9	0
357	958	47	0
357	958	47.1	0
357	958	47.2	0
357	958	47.3	0
357	958	47.4	0
357	958	47.5	0
357	958	47.6	0
357	958	47.7	0
357	958	47.8	0
357	958	47.9	0
357	958	48	0
357	958	48.1	0
357	958	48.2	0
357	958	48.3	0
357	958	48.4	0
357	958	48.5	0
357	958	48.6	0
357	958	48.7	0
357	958	48.8	0
357	958	48.9	0
357	958	49	0
357	958	49.1	0
357	958	49.2	0
357	958	49.3	0
357	958	49.4	0
357	958	49.5	0
357	958	49.6	0
357	958	49.7	0
357	958	49.8	0
357	958	49.9	0
357	958	50	0
357	958	50.1	0
357	958	50.2	0
357	958	50.3	0
357	958	50.4	0
357	958	50.5	0
357	958	50.6	0
357	958	50.7	0
357	958	50.8	0
357	958	50.9	0
357	958	51	0
357	958	51.1	0
357	958	51.2	0
357	958	51.3	0
357	958	51.4	0
357	958	51.5	0
357	958	51.6	0
357	958	51.7	0
357	958	51.8	0
357	958	51.9	0
357	958	52	0
357	958	52.1	0
357	958	52.2	0
357	958	52.3	0
357	958	52.4	0
357	958	52.5	0
357	958	52.6	0
357	958	52.7	0
357	958	52.8	0
357	958	52.9	0
357	958	53	0
357	958	53.1	0
357	958	53.2	0
357	958	53.3	0
357	958	53.4	0
357	958	53.5	0
357	958	53.6	0
357	958	53.7	0
357	958	53.8	0
357	958	53.9	0
357	958	54	0
357	958	54.1	0
357	958	54.2	0
357	958	54.3	0
357	958	54.4	0
357	958	54.5	0
357	958	54.6	0
357	958	54.7	0
357	958	54.8	0
357	958	54.9	0
357	958	55	0
357	958	55.1	0
357	958	55.2	0
357	958	55.3	0
357	958	55.4	0
357	958	55.5	0
357	958	55.6	0
357	958	55.7	0
357	958	55.8	0
357	958	55.9	0
357	958	56	0
357	958	56.1	0
357	958	56.2	0
357	958	56.3	0
357	958	56.4	0
357	958	56.5	0
357	958	56.6	0
357	958	56.7	0
357	958	56.8	0
357	958	56.9	0
357	958	57	0
357	958	57.1	0
357	958	57.2	0
357	958	57.3	0
357	958	57.4	0
357	958	57.5	0
357	958	57.6	0
357	958	57.7	0
357	958	57.8	0
357	958	57.9	0
357	958	58	0
357	958	58.1	0
357	958	58.2	0
357	958	58.3	0
357	958	58.4	0
357	958	58.5	0
357	958	58.6	0
357	958	58.7	0
357	958	58.8	0
357	958	58.9	0
357	958	59	0
357	958	59.1	0
357	958	59.2	0
357	958	59.3	0
357	958	59.4	0
357	958	59.5	0
357	958	59.6	0
357	958	59.7	0
357	958	59.8	0
357	958	59.9	0
357	958	60	0

